*SPEF "1481-1998"
*DESIGN "s1238"
*DATE "Sun Mar 10 20:44:51 2019"
*VENDOR "Synopsys, Inc."
*PROGRAM "icc_shell"
*VERSION "L-2016.03-SP5-1"
*DESIGN_FLOW "PIN_CAP NONE"
*DIVIDER /
*DELIMITER :
*BUS_DELIMITER [ ]
*T_UNIT 1 NS
*C_UNIT 1 FF
*R_UNIT 1 OHM
*L_UNIT 1 HENRY

*NAME_MAP
*1 G11
*2 G10
*3 G1
*4 G0
*5 CK
*6 VDD
*7 GND
*8 VDDA
*9 G7
*10 G6
*11 G5
*12 G4
*13 G3
*14 G2
*15 G13
*16 G12
*17 G539
*18 G537
*19 G535
*20 G532
*21 G530
*22 G45
*23 G9
*24 G8
*25 G552
*26 G551
*27 G550
*28 G549
*29 G548
*30 G547
*31 G546
*32 G542
*33 VSS
*34 G519
*35 DFF_17/q_reg
*36 U469
*37 DFF_1/q_reg
*38 DFF_0/q_reg
*39 DFF_9/q_reg
*40 DFF_8/q_reg
*41 DFF_7/q_reg
*42 DFF_6/q_reg
*43 DFF_5/q_reg
*44 DFF_4/q_reg
*45 DFF_3/q_reg
*46 DFF_2/q_reg
*47 DFF_16/q_reg
*48 DFF_15/q_reg
*49 DFF_14/q_reg
*50 DFF_13/q_reg
*51 DFF_12/q_reg
*52 DFF_11/q_reg
*53 DFF_10/q_reg
*54 G46
*55 U376
*56 U385
*57 n269
*58 U624
*59 G517
*60 U426
*61 G44
*62 U299
*63 G516
*64 U467
*65 G43
*66 U652
*67 G515
*68 U351
*69 G42
*70 U657
*71 G514
*72 U586
*73 G41
*74 U498
*75 G513
*76 U470
*77 G40
*78 U658
*79 n274
*80 U439
*81 G39
*82 U368
*83 G511
*84 U476
*85 U305
*86 G38
*87 U377
*88 U411
*89 n275
*90 U515
*91 G37
*92 G509
*93 U347
*94 G36
*95 DFF_7/U3
*96 U533
*97 n270
*98 U346
*99 G35
*100 U405
*101 G507
*102 U633
*103 G34
*104 U661
*105 U497
*106 U494
*107 U340
*108 G506
*109 U495
*110 G33
*111 U570
*112 n273
*113 U466
*114 G32
*115 U479
*116 U478
*117 U304
*118 U342
*119 n272
*120 U344
*121 G31
*122 U414
*123 n271
*124 U544
*125 G30
*126 U526
*127 U406
*128 U568
*129 U523
*130 U398
*131 U524
*132 G502
*133 U640
*134 G29
*135 U339
*136 n82
*137 U350
*138 U626
*139 n37
*140 U655
*141 U502
*142 U380
*143 U389
*144 U591
*145 U345
*146 U309
*147 n255
*148 U579
*149 n318
*150 U660
*151 U370
*152 U503
*153 n238
*154 U418
*155 n134
*156 U449
*157 n131
*158 U659
*159 U517
*160 n130
*161 U448
*162 n78
*163 U653
*164 n81
*165 n80
*166 U338
*167 n370
*168 U636
*169 U634
*170 n13
*171 n123
*172 U536
*173 n151
*174 U656
*175 U428
*176 U408
*177 U366
*178 n139
*179 U617
*180 n89
*181 U654
*182 U383
*183 U592
*184 U463
*185 n96
*186 U557
*187 n19
*188 U645
*189 U637
*190 U607
*191 U335
*192 U303
*193 U390
*194 n90
*195 U605
*196 U602
*197 U427
*198 U313
*199 n91
*200 U316
*201 n175
*202 U608
*203 n79
*204 U638
*205 U635
*206 n176
*207 U571
*208 n146
*209 U613
*210 n21
*211 U429
*212 U324
*213 n128
*214 U651
*215 U547
*216 U546
*217 U543
*218 n234
*219 U352
*220 n465
*221 U527
*222 U593
*223 n72
*224 U650
*225 n94
*226 U580
*227 n95
*228 U442
*229 n97
*230 U397
*231 n2
*232 U378
*233 U574
*234 n93
*235 U395
*236 n470
*237 U432
*238 n257
*239 U393
*240 U553
*241 U510
*242 n469
*243 U621
*244 U373
*245 n259
*246 U493
*247 n258
*248 U447
*249 n277
*250 U573
*251 U360
*252 U327
*253 U310
*254 U534
*255 n18
*256 U582
*257 U606
*258 U490
*259 U381
*260 U375
*261 U336
*262 U306
*263 U353
*264 U412
*265 U496
*266 U363
*267 n245
*268 n246
*269 U644
*270 n247
*271 U475
*272 n249
*273 U616
*274 DFF_7/n1
*275 n83
*276 U480
*277 U384
*278 n86
*279 U643
*280 U642
*281 U641
*282 U639
*283 U374
*284 U333
*285 n87
*286 U424
*287 U420
*288 n88
*289 U514
*290 U513
*291 n85
*292 n40
*293 U425
*294 U421
*295 n266
*296 U437
*297 n267
*298 U358
*299 n460
*300 U578
*301 n222
*302 U569
*303 n216
*304 n283
*305 n68
*306 U620
*307 U328
*308 n371
*309 n109
*310 U630
*311 n461
*312 U614
*313 U588
*314 U438
*315 U404
*316 U516
*317 U317
*318 U598
*319 U329
*320 n110
*321 U391
*322 n112
*323 n111
*324 U301
*325 n173
*326 U501
*327 U505
*328 n172
*329 U560
*330 n174
*331 U550
*332 n102
*333 U556
*334 U541
*335 n117
*336 U451
*337 n462
*338 U512
*339 n156
*340 U567
*341 U585
*342 U399
*343 n299
*344 U443
*345 U623
*346 U622
*347 n11
*348 U450
*349 U625
*350 n355
*351 U589
*352 n70
*353 U481
*354 U554
*355 n42
*356 U561
*357 U330
*358 n171
*359 U430
*360 n150
*361 U619
*362 n463
*363 U507
*364 n140
*365 n138
*366 n144
*367 U618
*368 n149
*369 n148
*370 n147
*371 U562
*372 n464
*373 U504
*374 U549
*375 n142
*376 U341
*377 n143
*378 n365
*379 U379
*380 n137
*381 U465
*382 n250
*383 n452
*384 U323
*385 U540
*386 U555
*387 n48
*388 U441
*389 n185
*390 U615
*391 U584
*392 n69
*393 U590
*394 n184
*395 U609
*396 U392
*397 n141
*398 U485
*399 n49
*400 U600
*401 U522
*402 n296
*403 n196
*404 U612
*405 U538
*406 n191
*407 U369
*408 n195
*409 U611
*410 n194
*411 U530
*412 n193
*413 U489
*414 n192
*415 n145
*416 U462
*417 U434
*418 n198
*419 U433
*420 n197
*421 U300
*422 n453
*423 U594
*424 n108
*425 U610
*426 U604
*427 n454
*428 U401
*429 n158
*430 n455
*431 n106
*432 U445
*433 U564
*434 U436
*435 U484
*436 U452
*437 U325
*438 n248
*439 U583
*440 n221
*441 n204
*442 U597
*443 U357
*444 n456
*445 U558
*446 n457
*447 U563
*448 U559
*449 n458
*450 U348
*451 U456
*452 n76
*453 U601
*454 U551
*455 U298
*456 n43
*457 n17
*458 U599
*459 U322
*460 n459
*461 n177
*462 U331
*463 n436
*464 U488
*465 U492
*466 n228
*467 U468
*468 n437
*469 n202
*470 U444
*471 n438
*472 U453
*473 n439
*474 U509
*475 n440
*476 U508
*477 n441
*478 n442
*479 U474
*480 U473
*481 U365
*482 U326
*483 n188
*484 U382
*485 n187
*486 n333
*487 U587
*488 U575
*489 U318
*490 U302
*491 U525
*492 U521
*493 U520
*494 U519
*495 U518
*496 U308
*497 n264
*498 n443
*499 n236
*500 n235
*501 n61
*502 U396
*503 n444
*504 U531
*505 n155
*506 n186
*507 n445
*508 n229
*509 n103
*510 U388
*511 n265
*512 U314
*513 n446
*514 n135
*515 U577
*516 n351
*517 U576
*518 n447
*519 U455
*520 U535
*521 n65
*522 U319
*523 n448
*524 n64
*525 U349
*526 n63
*527 n449
*528 n450
*529 U552
*530 n451
*531 U402
*532 n244
*533 U566
*534 n100
*535 U572
*536 U472
*537 n121
*538 U457
*539 n423
*540 n178
*541 U446
*542 n179
*543 n424
*544 U581
*545 n425
*546 n427
*547 U343
*548 n34
*549 U565
*550 U400
*551 n26
*552 U422
*553 U312
*554 n190
*555 U500
*556 U499
*557 n428
*558 U407
*559 n429
*560 U410
*561 n297
*562 U417
*563 U321
*564 n162
*565 U486
*566 n211
*567 n14
*568 U413
*569 n136
*570 U387
*571 n71
*572 U548
*573 U459
*574 n28
*575 n56
*576 U539
*577 n125
*578 n239
*579 U545
*580 n73
*581 U460
*582 U431
*583 n432
*584 n433
*585 n434
*586 n132
*587 U542
*588 n242
*589 n12
*590 U537
*591 n66
*592 U394
*593 n261
*594 n126
*595 U491
*596 U372
*597 n435
*598 U487
*599 U483
*600 U464
*601 U361
*602 n417
*603 U362
*604 n153
*605 U532
*606 U403
*607 n23
*608 U386
*609 U356
*610 n418
*611 n337
*612 U416
*613 n323
*614 U529
*615 U511
*616 n254
*617 n243
*618 U528
*619 n419
*620 n420
*621 n237
*622 n24
*623 U409
*624 n205
*625 U506
*626 n161
*627 n74
*628 n421
*629 n422
*630 n133
*631 n67
*632 n231
*633 n38
*634 U461
*635 U359
*636 U364
*637 U435
*638 U307
*639 U371
*640 U337
*641 U315
*642 n25
*643 U334
*644 n189
*645 n252
*646 n253
*647 n251
*648 n160
*649 U126
*650 U311
*651 n168
*652 U482
*653 U415
*654 n180
*655 n107
*656 U454
*657 n164
*658 n165
*659 n166
*660 n163
*661 n167
*662 U477
*663 n316
*664 n315
*665 n304
*666 n44
*667 U423
*668 n75
*669 n314
*670 U471
*671 n182
*672 n199
*673 n313
*674 n240
*675 n217
*676 n312
*677 n230
*678 n310
*679 n311
*680 n77
*681 U458
*682 n101
*683 n215
*684 n124
*685 n122
*686 n92
*687 n119
*688 n120
*689 n260
*690 n39
*691 n118
*692 n1
*693 n129
*694 n181
*695 n203
*696 n201
*697 n200
*698 n308
*699 U367
*700 n210
*701 n32
*702 n232
*703 n157
*704 n50
*705 n152
*706 U419
*707 n154
*708 U354
*709 n306
*710 U355
*711 n307
*712 n305
*713 n104
*714 n27
*715 n279
*716 n303
*717 n302
*718 n99
*719 n159
*720 n219
*721 n412
*722 n282
*723 n105
*724 n413
*725 U320
*726 n414
*727 n291
*728 n292
*729 n281
*730 n415
*731 n416
*732 n280
*733 n278
*734 n284
*735 n286
*736 n84
*737 n218
*738 n233
*739 n241
*740 n220
*741 n169
*742 U332
*743 n212
*744 n394
*745 n395
*746 n396
*747 n397
*748 n398
*749 n399
*750 n400
*751 n401
*752 n402
*753 n403
*754 n404
*755 n405
*756 n406
*757 n407
*758 n408
*759 n409
*760 n410
*761 n411

*PORTS
*1 I *L 0.0 *S 0.0 0.0
*2 I *L 0.0 *S 0.0 0.0
*3 I *L 0.0 *S 0.0 0.0
*4 I *L 0.0 *S 0.0 0.0
*5 I *L 0.0 *S 0.0 0.0
*6 I *L 0.0 *S 0.0 0.0
*7 I *L 0.0 *S 0.0 0.0
*8 I *L 0.0 *S 0.0 0.0
*9 I *L 0.0 *S 0.0 0.0
*10 I *L 0.0 *S 0.0 0.0
*11 I *L 0.0 *S 0.0 0.0
*12 I *L 0.0 *S 0.0 0.0
*13 I *L 0.0 *S 0.0 0.0
*14 I *L 0.0 *S 0.0 0.0
*15 I *L 0.0 *S 0.0 0.0
*16 I *L 0.0 *S 0.0 0.0
*17 O *L 300.0 *S 0.0 0.0
*18 O *L 300.0 *S 0.0 0.0
*19 O *L 300.0 *S 0.0 0.0
*20 O *L 300.0 *S 0.0 0.0
*21 O *L 300.0 *S 0.0 0.0
*22 O *L 300.0 *S 0.0 0.0
*23 I *L 0.0 *S 0.0 0.0
*24 I *L 0.0 *S 0.0 0.0
*25 O *L 300.0 *S 0.0 0.0
*26 O *L 300.0 *S 0.0 0.0
*27 O *L 300.0 *S 0.0 0.0
*28 O *L 300.0 *S 0.0 0.0
*29 O *L 300.0 *S 0.0 0.0
*30 O *L 300.0 *S 0.0 0.0
*31 O *L 300.0 *S 0.0 0.0
*32 O *L 300.0 *S 0.0 0.0
*33 I *L 0.0 *S 0.0 0.0

*D_NET *34 0.8025837

*CONN
*I *35:D I *L 496.4084 *C 41.905 9.049
*I *36:Y O *L 0.0 *D OA221X1_RVT *C 38.136 10.472
*N *34:3 *C 42.24 11.384
*N *34:4 *C 42.24 11.384
*N *34:5 *C 42.24 8.952
*N *34:6 *C 42.24 8.952
*N *34:7 *C 38.264 11.384
*N *34:8 *C 42.23 11.384
*N *34:9 *C 42.24 8.998
*N *34:10 *C 42.24 11.338

*CAP
1 *35:D 0.04431063
2 *36:Y 0.01620923
3 *34:3 0.01291074
4 *34:4 0.008175815
5 *34:5 0.01284731
6 *34:6 0.04431063
7 *34:7 0.1948089
8 *34:8 0.1867755
9 *34:9 0.08561478
10 *34:10 0.08567822
11 *34:10 *103:41 0.0554709
12 *34:9 *103:41 0.0554709

*RES
1 *34:3 *34:4 1.0
2 *34:5 *34:6 1.0
3 *36:Y *34:7 0.2561224
4 *34:7 *34:8 7.83152
5 *34:8 *34:4 0.002564103
6 *35:D *34:6 0.342353
7 *34:5 *34:9 0.02738095
8 *34:10 *34:3 0.02738095
9 *34:9 *34:10 4.082077

*END

*D_NET *5 8.546962

*CONN
*I *37:CLK I *L 619.3525 *C 37.528 29.928
*I *38:CLK I *L 619.3525 *C 30.84 6.52
*I *39:CLK I *L 619.3525 *C 38.896 40.264
*I *40:CLK I *L 619.3525 *C 19.44 40.264
*I *41:CLK I *L 619.3525 *C 38.288 23.24
*I *42:CLK I *L 619.3525 *C 39.048 16.552
*I *43:CLK I *L 619.3525 *C 39.048 6.52
*I *44:CLK I *L 619.3525 *C 38.288 26.584
*I *45:CLK I *L 619.3525 *C 38.288 19.896
*I *46:CLK I *L 619.3525 *C 38.744 13.208
*I *35:CLK I *L 619.3525 *C 41.632 9.864
*I *47:CLK I *L 619.3525 *C 34.64 40.264
*I *48:CLK I *L 619.3525 *C 38.896 33.272
*I *49:CLK I *L 619.3525 *C 37.68 6.52
*I *50:CLK I *L 619.3525 *C 38.896 36.92
*I *51:CLK I *L 619.3525 *C 8.648 40.264
*I *52:CLK I *L 619.3525 *C 31.296 9.864
*I *53:CLK I *L 619.3525 *C 41.632 33.576
*P *5 I *C 31.296 0.028
*N *5:20 *C 38.744 13.208
*N *5:21 *C 38.744 13.208
*N *5:22 *C 38.896 13.208
*N *5:23 *C 38.896 13.208
*N *5:24 *C 30.84 6.52
*N *5:25 *C 30.84 6.52
*N *5:26 *C 30.992 6.52
*N *5:27 *C 30.992 6.52
*N *5:28 *C 38.896 40.264
*N *5:29 *C 38.896 40.264
*N *5:30 *C 38.896 40.264
*N *5:31 *C 19.44 40.264
*N *5:32 *C 19.44 40.264
*N *5:33 *C 19.44 40.264
*N *5:34 *C 19.44 40.264
*N *5:35 *C 38.288 23.24
*N *5:36 *C 38.288 23.24
*N *5:37 *C 38.896 23.24
*N *5:38 *C 38.896 23.24
*N *5:39 *C 39.048 16.552
*N *5:40 *C 38.896 16.552
*N *5:41 *C 38.896 16.552
*N *5:42 *C 38.896 16.552
*N *5:43 *C 39.048 6.52
*N *5:44 *C 39.048 6.216
*N *5:45 *C 39.048 6.216
*N *5:46 *C 38.288 26.584
*N *5:47 *C 38.288 26.584
*N *5:48 *C 38.896 26.584
*N *5:49 *C 38.896 26.584
*N *5:50 *C 38.288 19.896
*N *5:51 *C 38.288 19.896
*N *5:52 *C 38.896 19.896
*N *5:53 *C 38.896 19.896
*N *5:54 *C 34.64 40.264
*N *5:55 *C 34.64 40.264
*N *5:56 *C 34.64 40.264
*N *5:57 *C 34.64 40.264
*N *5:58 *C 38.896 33.272
*N *5:59 *C 38.896 33.272
*N *5:60 *C 38.896 33.272
*N *5:61 *C 38.896 36.92
*N *5:62 *C 38.896 36.92
*N *5:63 *C 38.896 36.92
*N *5:64 *C 41.632 9.864
*N *5:65 *C 41.632 9.864
*N *5:66 *C 38.896 9.864
*N *5:67 *C 38.896 9.864
*N *5:68 *C 37.528 29.928
*N *5:69 *C 37.528 29.928
*N *5:70 *C 38.288 29.928
*N *5:71 *C 38.288 29.928
*N *5:72 *C 38.288 29.928
*N *5:73 *C 38.896 29.928
*N *5:74 *C 38.896 29.928
*N *5:75 *C 31.296 0.136
*N *5:76 *C 31.296 0.136
*N *5:77 *C 31.296 0.136
*N *5:78 *C 38.896 40.264
*N *5:79 *C 30.992 6.216
*N *5:80 *C 30.992 6.216
*N *5:81 *C 39.048 6.216
*N *5:82 *C 39.048 6.216
*N *5:83 *C 37.68 6.52
*N *5:84 *C 37.68 6.52
*N *5:85 *C 41.632 33.576
*N *5:86 *C 41.632 33.576
*N *5:87 *C 38.896 33.576
*N *5:88 *C 38.896 33.576
*N *5:89 *C 8.648 40.264
*N *5:90 *C 8.648 40.264
*N *5:91 *C 8.8 40.264
*N *5:92 *C 8.8 40.264
*N *5:93 *C 8.8 40.264
*N *5:94 *C 31.296 9.864
*N *5:95 *C 31.296 9.864
*N *5:96 *C 28.56 9.864
*N *5:97 *C 28.56 9.864
*N *5:98 *C 28.56 9.864
*N *5:99 *C 30.992 9.864
*N *5:100 *C 30.992 9.864
*N *5:101 *C 34.64 40.264
*N *5:102 *C 39.048 6.474
*N *5:103 *C 38.105 29.928
*N *5:104 *C 39.048 6.52
*N *5:105 *C 38.713 19.896
*N *5:106 *C 38.713 23.24
*N *5:107 *C 38.743 26.584
*N *5:108 *C 31.296 6.216
*N *5:109 *C 38.896 6.216

*CAP
1 *37:CLK 0.0
2 *38:CLK 0.0
3 *39:CLK 0.0
4 *40:CLK 0.0
5 *41:CLK 0.0
6 *42:CLK 0.0
7 *43:CLK 0.0
8 *44:CLK 0.0
9 *45:CLK 0.0
10 *46:CLK 0.0
11 *35:CLK 0.0
12 *47:CLK 0.0
13 *48:CLK 0.0
14 *49:CLK 0.0
15 *50:CLK 0.0
16 *51:CLK 0.0
17 *52:CLK 0.0
18 *53:CLK 0.0
19 *5 0.01926022
20 *5:20 0.0190616
21 *5:21 0.03556858
22 *5:22 0.2480886
23 *5:23 0.01650698
24 *5:24 0.01481558
25 *5:25 0.030341
26 *5:26 0.1389468
27 *5:27 0.01552542
28 *5:28 0.01374401
29 *5:29 0.02688562
30 *5:30 0.1410747
31 *5:31 0.01470457
32 *5:32 0.02790537
33 *5:33 0.02630263
34 *5:34 0.9706272
35 *5:35 0.02254453
36 *5:36 0.04334105
37 *5:37 0.2498354
38 *5:38 0.009545748
39 *5:39 0.0150017
40 *5:40 0.01320658
41 *5:41 0.0150017
42 *5:42 0.2619051
43 *5:43 0.009310661
44 *5:44 0.0155649
45 *5:45 0.01364112
46 *5:46 0.01595544
47 *5:47 0.04092718
48 *5:48 0.2510853
49 *5:49 0.009568334
50 *5:50 0.02022972
51 *5:51 0.04460572
52 *5:52 0.2490818
53 *5:53 0.01119884
54 *5:54 0.7240402
55 *5:55 0.01392883
56 *5:56 0.02920181
57 *5:57 0.0232641
58 *5:58 0.01478016
59 *5:59 0.02560884
60 *5:60 0.1486075
61 *5:61 0.01724225
62 *5:62 0.03084117
63 *5:63 0.2657369
64 *5:64 0.01356736
65 *5:65 0.1212806
66 *5:66 0.2617342
67 *5:67 0.1077132
68 *5:68 0.01509774
69 *5:69 0.04618653
70 *5:70 0.01321695
71 *5:71 0.01125108
72 *5:72 0.0428485
73 *5:73 0.02963154
74 *5:74 0.252051
75 *5:75 0.01316267
76 *5:76 0.01926022
77 *5:77 0.2382852
78 *5:78 0.16056
79 *5:79 0.3040937
80 *5:80 0.01963253
81 *5:81 0.3040937
82 *5:82 0.01021225
83 *5:83 0.01363373
84 *5:84 0.06929934
85 *5:85 0.01390786
86 *5:86 0.1191797
87 *5:87 0.1357242
88 *5:88 0.1052718
89 *5:89 0.01345733
90 *5:90 0.02652379
91 *5:91 0.01294687
92 *5:92 0.01306645
93 *5:93 0.4069922
94 *5:94 0.02400829
95 *5:95 0.1402052
96 *5:96 0.01340941
97 *5:97 0.1161969
98 *5:98 0.1138542
99 *5:99 0.1004448
100 *5:100 0.1310025
101 *5:101 0.007991119
102 *5:102 0.02295178
103 *5:103 0.04233987
104 *5:104 0.07123051
105 *5:105 0.03557484
106 *5:106 0.03034228
107 *5:107 0.03454007
108 *5:108 0.2368108
109 *5:109 0.1480163

*RES
1 *5:20 *46:CLK 1.0
2 *5:21 *5:20 0.5
3 *5:22 *5:23 0.5
4 *5:24 *38:CLK 1.0
5 *5:25 *5:24 0.5
6 *5:26 *5:27 0.5
7 *5:28 *39:CLK 1.0
8 *5:29 *5:28 0.5
9 *5:30 *5:29 0.5
10 *5:31 *40:CLK 1.0
11 *5:32 *5:31 0.5
12 *5:33 *5:32 0.5
13 *5:34 *5:33 0.5
14 *5:35 *41:CLK 1.0
15 *5:36 *5:35 0.5
16 *5:37 *5:38 0.5
17 *5:39 *42:CLK 1.0
18 *5:40 *5:41 0.5
19 *5:42 *5:40 0.5
20 *5:43 *43:CLK 1.0
21 *5:44 *5:45 0.5
22 *5:46 *44:CLK 1.0
23 *5:47 *5:46 0.5
24 *5:48 *5:49 0.5
25 *5:50 *45:CLK 1.0
26 *5:51 *5:50 0.5
27 *5:52 *5:53 0.5
28 *5:54 *5:55 0.5
29 *5:55 *5:56 0.5
30 *5:56 *5:57 0.25
31 *5:58 *48:CLK 1.0
32 *5:59 *5:58 0.5
33 *5:60 *5:59 0.5
34 *5:61 *50:CLK 1.0
35 *5:62 *5:61 0.5
36 *5:63 *5:62 0.5
37 *5:64 *35:CLK 1.0
38 *5:65 *5:64 0.5
39 *5:66 *5:67 0.5
40 *5:68 *37:CLK 1.0
41 *5:69 *5:68 0.5
42 *5:70 *5:71 0.5
43 *5:72 *5:70 0.5
44 *5:73 *5:74 0.5
45 *5:75 *5:76 0.5
46 *5:77 *5:75 0.5
47 *5:78 *5:30 0.5
48 *5:79 *5:80 0.5
49 *5:81 *5:82 0.5
50 *5:83 *49:CLK 1.0
51 *5:84 *5:83 0.5
52 *5:82 *5:44 0.5
53 *5:85 *53:CLK 1.0
54 *5:86 *5:85 0.5
55 *5:87 *5:88 0.5
56 *5:89 *51:CLK 1.0
57 *5:90 *5:89 0.5
58 *5:91 *5:92 0.5
59 *5:93 *5:91 0.5
60 *5:94 *52:CLK 1.0
61 *5:95 *5:94 0.5
62 *5:96 *5:97 0.5
63 *5:98 *5:96 0.5
64 *5:99 *5:100 0.5
65 *5:101 *47:CLK 1.0
66 *5 *5:76 0.1043326
67 *5:101 *5:57 1e-07
68 *5:41 *5:39 0.09097686
69 *5:102 *5:43 0.02738095
70 *5:45 *5:102 0.3907956
71 *5:90 *5:92 0.2068502
72 *5:97 *5:95 4.78958
73 *5:25 *5:27 0.2068502
74 *5:69 *5:103 0.949883
75 *5:84 *5:104 2.352081
76 *5:103 *5:71 0.2369703
77 *5:51 *5:105 0.6837074
78 *5:36 *5:106 0.6837074
79 *5:47 *5:107 0.7360295
80 *5:21 *5:23 0.2166184
81 *5:105 *5:53 0.2369703
82 *5:106 *5:38 0.2369703
83 *5:107 *5:49 0.1909833
84 *5:67 *5:65 4.78958
85 *5:88 *5:86 4.78958
86 *5:44 *5:104 0.4421949
87 *5:80 *5:108 0.4643043
88 *5:80 *5:26 0.4552491
89 *5:26 *5:100 5.8722
90 *5:77 *5:108 10.75849
91 *5:109 *5:66 6.416537
92 *5:66 *5:22 5.873076
93 *5:22 *5:42 5.873076
94 *5:42 *5:52 5.873076
95 *5:52 *5:37 5.873075
96 *5:37 *5:48 5.873076
97 *5:48 *5:74 5.873076
98 *5:74 *5:60 5.873076
99 *5:60 *5:87 0.4584127
100 *5:87 *5:63 5.873076
101 *5:63 *5:30 5.874642
102 *5:109 *5:82 0.1700953
103 *5:93 *5:34 18.90103
104 *5:34 *5:54 27.04322
105 *5:54 *5:78 7.502542
106 *5:98 *5:99 4.24608
107 *5:79 *5:81 14.28773
108 *5:72 *5:73 1.007162

*END

*D_NET *54 1.077197

*CONN
*I *35:Q O *L 0.0 *D DFFX1_RVT *C 38.592 9.434
*I *55:A1 I *L 526.317 *C 39.808 17.424
*I *56:A1 I *L 526.317 *C 37.68 15.984
*N *54:4 *C 38.592 9.434
*N *54:5 *C 38.592 16.096
*N *54:6 *C 38.592 16.096
*N *54:7 *C 38.592 17.312
*N *54:8 *C 38.592 17.312
*N *54:9 *C 37.984 15.973
*N *54:10 *C 37.984 16.096
*N *54:11 *C 38.582 16.096
*N *54:12 *C 39.504 17.312
*N *54:13 *C 39.504 17.438
*N *54:14 *C 38.592 9.48
*N *54:15 *C 38.592 16.05
*N *54:16 *C 38.592 16.142
*N *54:17 *C 38.592 17.266

*CAP
1 *35:Q 0.0
2 *55:A1 0.01093763
3 *56:A1 0.01904773
4 *54:4 0.009357323
5 *54:5 0.01234142
6 *54:6 0.005846308
7 *54:7 0.01043103
8 *54:8 0.07938986
9 *54:9 0.0254304
10 *54:10 0.04149987
11 *54:11 0.04096351
12 *54:12 0.085465
13 *54:13 0.01701276
14 *54:14 0.2676453
15 *54:15 0.260776
16 *54:16 0.05997023
17 *54:17 0.06054793
18 *54:15 *751:58 0.03526725
19 *54:15 *751:94 0.03526725

*RES
1 *54:4 *35:Q 1.0
2 *54:5 *54:6 1.0
3 *54:7 *54:8 1.0
4 *56:A1 *54:9 0.5243269
5 *54:9 *54:10 0.1744884
6 *54:10 *54:11 1.096829
7 *54:11 *54:6 0.002564103
8 *54:8 *54:12 1.729198
9 *54:12 *54:13 0.1823868
10 *54:13 *55:A1 0.4033898
11 *54:4 *54:14 0.02738095
12 *54:15 *54:5 0.05476191
13 *54:5 *54:16 0.05476191
14 *54:17 *54:7 0.02738096
15 *54:14 *54:15 11.63342
16 *54:16 *54:17 1.914173

*END

*D_NET *57 2.313475

*CONN
*I *47:D I *L 496.4084 *C 34.367 41.079
*I *58:Y O *L 0.0 *D AO221X1_RVT *C 21.872 28.707
*N *57:3 *C 22.024 29.776
*N *57:4 *C 22.024 29.776
*N *57:5 *C 22.176 40.568
*N *57:6 *C 22.176 40.568
*N *57:7 *C 33.728 40.568
*N *57:8 *C 33.728 40.568
*N *57:9 *C 33.728 41.024
*N *57:10 *C 33.728 41.024
*N *57:11 *C 22.003 29.65
*N *57:12 *C 34.313 41.024
*N *57:13 *C 22.024 29.822
*N *57:14 *C 22.024 31.296
*N *57:15 *C 22.176 31.296
*N *57:16 *C 33.728 40.978

*CAP
1 *47:D 0.004882093
2 *58:Y 0.006903373
3 *57:3 0.01049555
4 *57:4 0.006784877
5 *57:5 0.4178436
6 *57:6 0.2657537
7 *57:7 0.4178436
8 *57:8 0.01949605
9 *57:9 0.009337726
10 *57:10 0.06326773
11 *57:11 0.01368825
12 *57:12 0.06814982
13 *57:13 0.0771271
14 *57:14 0.07403305
15 *57:15 0.2731552
16 *57:16 0.02883378
17 *57:6 *91:16 0.09180531
18 *57:6 *91:10 0.2341654
19 *57:15 *91:15 0.1423601
20 *57:7 *500:7 0.04377406
21 *57:5 *500:5 0.04377406

*RES
1 *57:3 *57:4 1.0
2 *57:5 *57:6 0.5
3 *57:7 *57:8 0.5
4 *57:9 *57:10 1.0
5 *58:Y *57:11 0.2175439
6 *57:11 *57:4 0.1009375
7 *57:10 *57:12 1.078307
8 *57:12 *47:D 0.152
9 *57:3 *57:13 0.02738096
10 *57:13 *57:14 2.539263
11 *57:14 *57:15 0.1983517
12 *57:15 *57:6 16.45802
13 *57:16 *57:9 0.02738095
14 *57:8 *57:16 0.6534481
15 *57:5 *57:7 20.52999

*END

*D_NET *22 0.8331704

*CONN
*I *47:Q O *L 0.0 *D DFFX1_RVT *C 37.68 40.699
*P *22 O *C 33.424 46.756
*N *22:3 *C 33.424 45.432
*N *22:4 *C 33.424 45.432
*N *22:5 *C 37.68 45.432
*N *22:6 *C 37.68 45.432
*N *22:7 *C 37.68 40.699
*N *22:8 *C 37.68 40.745

*CAP
1 *47:Q 0.0
2 *22 0.05401835
3 *22:3 0.1692415
4 *22:4 0.05401835
5 *22:5 0.1692415
6 *22:6 0.1839507
7 *22:7 0.009374641
8 *22:8 0.1933253

*RES
1 *22:3 *22:4 0.25
2 *22:5 *22:6 0.5
3 *22:7 *47:Q 1.0
4 *22:4 *22 2.271827
5 *22:7 *22:8 0.02738095
6 *22:8 *22:6 8.272544
7 *22:3 *22:5 7.501299

*END

*D_NET *59 1.136825

*CONN
*I *48:D I *L 496.4084 *C 38.623 32.457
*I *60:Y O *L 0.0 *D NOR3X0_RVT *C 32.523 27.952
*N *59:3 *C 32.512 28.256
*N *59:4 *C 32.512 28.256
*N *59:5 *C 32.512 29.016
*N *59:6 *C 32.512 29.016
*N *59:7 *C 32.512 29.016
*N *59:8 *C 32.512 30.232
*N *59:9 *C 32.512 30.232
*N *59:10 *C 35.552 30.232
*N *59:11 *C 35.552 30.232
*N *59:12 *C 35.552 31.448
*N *59:13 *C 35.552 31.448
*N *59:14 *C 37.68 31.448
*N *59:15 *C 37.68 31.448
*N *59:16 *C 37.68 32.36
*N *59:17 *C 37.68 32.36
*N *59:18 *C 32.512 28.302
*N *59:19 *C 37.68 32.314

*CAP
1 *48:D 0.06656728
2 *60:Y 0.02486085
3 *59:3 0.01162841
4 *59:4 0.02486085
5 *59:5 0.01414602
6 *59:6 0.04516036
7 *59:7 0.07183578
8 *59:8 0.05768975
9 *59:9 0.1355859
10 *59:10 0.02042468
11 *59:11 0.1355859
12 *59:12 0.02042468
13 *59:13 0.07444271
14 *59:14 0.07444271
15 *59:15 0.0466938
16 *59:16 0.01029274
17 *59:17 0.06656728
18 *59:18 0.05678878
19 *59:19 0.05698654
20 *59:14 *588:4 0.02393099
21 *59:13 *588:6 0.02393099
22 *59:12 *746:53 0.03698906
23 *59:10 *746:53 0.03698906

*RES
1 *59:3 *59:4 1.0
2 *59:5 *59:6 0.5
3 *59:7 *59:5 0.5
4 *59:8 *59:9 0.5
5 *59:10 *59:11 0.5
6 *59:12 *59:13 0.5
7 *59:14 *59:15 0.5
8 *59:16 *59:17 1.0
9 *60:Y *59:4 0.344375
10 *59:17 *48:D 1.129412
11 *59:3 *59:18 0.02738095
12 *59:18 *59:6 1.182152
13 *59:19 *59:16 0.02738095
14 *59:15 *59:19 1.449343
15 *59:9 *59:11 5.33375
16 *59:13 *59:14 3.703667
17 *59:7 *59:8 2.083441
18 *59:10 *59:12 2.08344

*END

*D_NET *61 2.371781

*CONN
*I *48:Q O *L 0.0 *D DFFX1_RVT *C 41.936 32.816
*I *62:A1 I *L 427.6624 *C 15.75 30.938
*N *61:3 *C 41.936 32.816
*N *61:4 *C 41.936 32.36
*N *61:5 *C 41.936 32.36
*N *61:6 *C 38.592 32.36
*N *61:7 *C 38.592 32.36
*N *61:8 *C 38.592 32.36
*N *61:9 *C 17.92 32.36
*N *61:10 *C 17.92 32.36
*N *61:11 *C 17.92 31.448
*N *61:12 *C 17.92 31.448
*N *61:13 *C 16.4 31.448
*N *61:14 *C 16.4 31.448
*N *61:15 *C 16.4 30.992
*N *61:16 *C 16.4 30.992
*N *61:17 *C 15.75 30.959
*N *61:18 *C 16.337 30.959
*N *61:19 *C 16.4 31.038
*N *61:20 *C 41.936 32.77

*CAP
1 *48:Q 0.0
2 *62:A1 0.04059537
3 *61:3 0.01021951
4 *61:4 0.1359295
5 *61:5 0.02394853
6 *61:6 0.01432787
7 *61:7 0.1359295
8 *61:8 0.7916349
9 *61:9 0.777307
10 *61:10 0.04189773
11 *61:11 0.04189773
12 *61:12 0.07621554
13 *61:13 0.07621554
14 *61:14 0.03335003
15 *61:15 0.01386334
16 *61:16 0.01823603
17 *61:17 0.006564565
18 *61:18 0.05226684
19 *61:19 0.04721336
20 *61:20 0.03416804

*RES
1 *61:3 *48:Q 1.0
2 *61:4 *61:5 0.5
3 *61:6 *61:7 0.5
4 *61:8 *61:6 0.5
5 *61:9 *61:10 0.5
6 *61:11 *61:12 0.5
7 *61:13 *61:14 0.5
8 *61:15 *61:16 1.0
9 *61:17 *62:A1 0.003903846
10 *62:A1 *61:18 1.06
11 *61:18 *61:16 0.04750001
12 *61:15 *61:19 0.02738095
13 *61:19 *61:14 0.6575974
14 *61:20 *61:3 0.02738095
15 *61:5 *61:20 0.6381062
16 *61:13 *61:12 2.624131
17 *61:7 *61:4 5.873794
18 *61:11 *61:10 1.54397
19 *61:9 *61:8 36.81509

*END

*D_NET *63 0.5180888

*CONN
*I *49:D I *L 496.4084 *C 37.953 5.705
*I *64:Y O *L 0.0 *D NOR3X0_RVT *C 36.008 7.163
*N *63:3 *C 38.136 5.608
*N *63:4 *C 38.136 5.608
*N *63:5 *C 38.136 5.608
*N *63:6 *C 35.704 5.608
*N *63:7 *C 35.704 5.608
*N *63:8 *C 35.704 7.913
*N *63:9 *C 35.704 7.913
*N *63:10 *C 35.704 7.867

*CAP
1 *49:D 0.03239752
2 *64:Y 0.008825932
3 *63:3 0.01302089
4 *63:4 0.03239752
5 *63:5 0.1168585
6 *63:6 0.1038376
7 *63:7 0.09160375
8 *63:8 0.009358744
9 *63:9 0.008825932
10 *63:10 0.1009625

*RES
1 *63:3 *63:4 1.0
2 *63:5 *63:3 0.25
3 *63:6 *63:7 0.25
4 *63:8 *63:9 1.0
5 *63:9 *64:Y 0.2783333
6 *49:D *63:4 0.1635294
7 *63:10 *63:8 0.02738095
8 *63:7 *63:10 3.939607
9 *63:6 *63:5 4.240586

*END

*D_NET *65 2.83323

*CONN
*I *49:Q O *L 0.0 *D DFFX1_RVT *C 34.64 6.064
*I *66:A6 I *L 534.2307 *C 18.832 20.2
*N *65:3 *C 34.64 6.064
*N *65:4 *C 18.832 20.2
*N *65:5 *C 18.832 15.944
*N *65:6 *C 18.832 15.944
*N *65:7 *C 20.352 15.944
*N *65:8 *C 20.352 15.944
*N *65:9 *C 20.352 5.304
*N *65:10 *C 20.352 5.304
*N *65:11 *C 34.488 5.304
*N *65:12 *C 34.488 5.304
*N *65:13 *C 18.806 20.227
*N *65:14 *C 18.832 20.154
*N *65:15 *C 34.488 6.064
*N *65:16 *C 34.593 6.064

*CAP
1 *49:Q 0.0
2 *66:A6 0.006522917
3 *65:3 0.004798802
4 *65:4 0.01381455
5 *65:5 0.08103662
6 *65:6 0.0854817
7 *65:7 0.2388935
8 *65:8 0.08103662
9 *65:9 0.2388935
10 *65:10 0.3589957
11 *65:11 0.3589957
12 *65:12 0.03751124
13 *65:13 0.006522917
14 *65:14 0.09929626
15 *65:15 0.04089242
16 *65:16 0.008179982
17 *65:14 *206:7 0.03607361
18 *65:6 *206:6 0.03607361
19 *65:7 *275:33 0.1097956
20 *65:11 *278:8 0.1369728
21 *65:10 *278:24 0.2221466
22 *65:10 *278:12 0.08517374
23 *65:7 *4:58 0.1564542
24 *65:9 *4:39 0.1564542
25 *65:14 *14:109 0.0846816
26 *65:6 *14:111 0.0846816
27 *65:6 *542:11 0.03192473
28 *65:6 *542:5 0.03192473

*RES
1 *65:3 *49:Q 1.0
2 *65:4 *66:A6 1.0
3 *65:5 *65:6 0.5
4 *65:7 *65:8 0.5
5 *65:9 *65:10 0.5
6 *65:11 *65:12 0.5
7 *65:13 *66:A6 0.04626087
8 *65:14 *65:4 0.02738096
9 *65:6 *65:14 7.418472
10 *65:12 *65:15 1.263777
11 *65:15 *65:16 0.1085526
12 *65:16 *65:3 0.01424243
13 *65:5 *65:8 2.619345
14 *65:10 *65:11 25.14343
15 *65:9 *65:7 18.90154

*END

*D_NET *67 0.8222249

*CONN
*I *50:D I *L 496.4084 *C 38.623 37.735
*I *68:Y O *L 0.0 *D OA222X1_RVT *C 33.272 39.656
*N *67:3 *C 38.288 36.92
*N *67:4 *C 38.288 36.92
*N *67:5 *C 33.424 38.592
*N *67:6 *C 33.424 38.592
*N *67:7 *C 33.424 36.92
*N *67:8 *C 33.424 36.92
*N *67:9 *C 38.136 36.92
*N *67:10 *C 38.136 36.92
*N *67:11 *C 33.4 38.614
*N *67:12 *C 38.288 37.749
*N *67:13 *C 33.424 38.546
*N *67:14 *C 38.241 36.92

*CAP
1 *50:D 0.0174528
2 *68:Y 0.02250881
3 *67:3 0.005102183
4 *67:4 0.04332658
5 *67:5 0.01220966
6 *67:6 0.004978143
7 *67:7 0.1355636
8 *67:8 0.06475705
9 *67:9 0.1355636
10 *67:10 0.009504723
11 *67:11 0.02748696
12 *67:12 0.06077937
13 *67:13 0.07696673
14 *67:14 0.01460691
15 *67:13 *486:21 0.0482261
16 *67:9 *507:4 0.01634948
17 *67:9 *507:6 0.01634948
18 *67:7 *757:76 0.06397581
19 *67:9 *745:48 0.02325842
20 *67:7 *745:50 0.02325842

*RES
1 *67:3 *67:4 1.0
2 *67:5 *67:6 1.0
3 *67:7 *67:8 0.5
4 *67:9 *67:10 0.5
5 *67:11 *67:6 0.04750001
6 *67:11 *68:Y 0.3969388
7 *67:4 *67:12 1.564116
8 *67:12 *50:D 0.343038
9 *67:13 *67:5 0.02738095
10 *67:8 *67:13 2.805146
11 *67:10 *67:14 0.1272727
12 *67:14 *67:3 0.01424243
13 *67:7 *67:9 8.3142

*END

*D_NET *69 1.103313

*CONN
*I *50:Q O *L 0.0 *D DFFX1_RVT *C 41.936 37.35
*I *70:A1 I *L 481.3457 *C 30.038 37.626
*N *69:3 *C 41.936 37.35
*N *69:4 *C 41.936 37.832
*N *69:5 *C 41.936 37.832
*N *69:6 *C 30.232 37.832
*N *69:7 *C 30.232 37.832
*N *69:8 *C 30.232 37.68
*N *69:9 *C 30.232 37.68
*N *69:10 *C 41.936 37.396

*CAP
1 *50:Q 0.0
2 *70:A1 0.01749649
3 *69:3 0.00933611
4 *69:4 0.3374248
5 *69:5 0.02160313
6 *69:6 0.3374248
7 *69:7 1e-10
8 *69:8 1e-10
9 *69:9 0.01749649
10 *69:10 0.03093924
11 *69:6 *171:3 0.03493183
12 *69:6 *171:5 0.03493183
13 *69:6 *486:36 0.02511855
14 *69:6 *486:20 0.02511855
15 *69:6 *9:13 0.07878259
16 *69:6 *9:39 0.07878259
17 *69:7 *701:16 0.02696315
18 *69:8 *701:16 0.02696315

*RES
1 *69:3 *50:Q 1.0
2 *69:4 *69:5 0.5
3 *69:6 *69:7 0.5
4 *69:8 *69:9 1.0
5 *70:A1 *69:9 0.1403211
6 *69:8 *69:7 0.2207153
7 *69:3 *69:10 0.02738095
8 *69:10 *69:5 0.702877
9 *69:6 *69:4 20.8014

*END

*D_NET *71 1.541228

*CONN
*I *51:D I *L 496.4084 *C 8.921 41.079
*I *72:Y O *L 0.0 *D OA221X1_RVT *C 26.584 40.568
*N *71:3 *C 25.672 41.48
*N *71:4 *C 25.672 41.48
*N *71:5 *C 25.672 41.176
*N *71:6 *C 25.672 41.176
*N *71:7 *C 9.104 41.176
*N *71:8 *C 9.104 41.176
*N *71:9 *C 9.104 41.176
*N *71:10 *C 26.456 41.48
*N *71:11 *C 25.672 41.434

*CAP
1 *51:D 0.02476667
2 *72:Y 0.01155127
3 *71:3 0.009492393
4 *71:4 0.06688737
5 *71:5 0.6305866
6 *71:6 0.01385704
7 *71:7 0.6305866
8 *71:8 0.01347263
9 *71:9 0.0382393
10 *71:10 0.07843862
11 *71:11 0.02334943

*RES
1 *71:3 *71:4 1.0
2 *71:5 *71:6 0.5
3 *71:7 *71:8 0.5
4 *71:8 *71:9 1.0
5 *51:D *71:9 0.1635294
6 *71:4 *71:10 1.476089
7 *72:Y *71:10 0.1857143
8 *71:11 *71:3 0.02738095
9 *71:6 *71:11 0.3907956
10 *71:7 *71:5 29.48671

*END

*D_NET *73 0.150132

*CONN
*I *51:Q O *L 0.0 *D DFFX1_RVT *C 5.608 40.72
*I *74:A I *L 688.1503 *C 5.608 39.2
*N *73:3 *C 5.608 39.2
*N *73:4 *C 5.608 40.72
*N *73:5 *C 5.608 39.246
*N *73:6 *C 5.608 40.674

*CAP
1 *51:Q 0.0
2 *74:A 0.0
3 *73:3 0.009410793
4 *73:4 0.009303567
5 *73:5 0.06576246
6 *73:6 0.06565524

*RES
1 *73:3 *74:A 1.0
2 *73:4 *51:Q 1.0
3 *73:3 *73:5 0.02738096
4 *73:6 *73:4 0.02738095
5 *73:5 *73:6 2.455618

*END

*D_NET *75 2.515778

*CONN
*I *52:D I *L 496.4084 *C 31.569 9.049
*I *76:Y O *L 0.0 *D OA22X1_RVT *C 34.488 32.092
*N *75:3 *C 31.904 8.952
*N *75:4 *C 31.904 8.952
*N *75:5 *C 31.752 17.768
*N *75:6 *C 31.752 17.768
*N *75:7 *C 34.64 17.768
*N *75:8 *C 34.64 17.768
*N *75:9 *C 34.64 29.928
*N *75:10 *C 34.64 29.928
*N *75:11 *C 34.64 29.928
*N *75:12 *C 34.64 31.904
*N *75:13 *C 34.64 31.904
*N *75:14 *C 34.616 31.926
*N *75:15 *C 31.752 11.992
*N *75:16 *C 31.904 11.992
*N *75:17 *C 31.904 8.998
*N *75:18 *C 34.64 31.858

*CAP
1 *52:D 0.04643761
2 *76:Y 0.02276433
3 *75:3 0.01290212
4 *75:4 0.04643761
5 *75:5 0.129586
6 *75:6 0.2397618
7 *75:7 0.2890937
8 *75:8 0.129586
9 *75:9 0.2890937
10 *75:10 0.01835312
11 *75:11 0.1298353
12 *75:12 0.01249339
13 *75:13 0.005035249
14 *75:14 0.02779958
15 *75:15 0.2514143
16 *75:16 0.1642014
17 *75:17 0.165451
18 *75:18 0.1239756
19 *75:9 *14:51 0.2057782
20 *75:7 *14:126 0.2057782
21 *75:17 *14:43 1e-07

*RES
1 *75:3 *75:4 1.0
2 *75:5 *75:6 0.5
3 *75:7 *75:8 0.5
4 *75:9 *75:10 0.5
5 *75:10 *75:11 0.25
6 *75:12 *75:13 1.0
7 *52:D *75:4 0.342353
8 *75:14 *75:13 0.04750001
9 *75:14 *76:Y 0.3770919
10 *75:15 *75:16 0.2138529
11 *75:15 *75:6 10.2157
12 *75:3 *75:17 0.02738096
13 *75:17 *75:16 5.248298
14 *75:18 *75:12 0.02738095
15 *75:11 *75:18 3.353011
16 *75:5 *75:8 5.062578
17 *75:7 *75:9 21.61563

*END

*D_NET *77 0.428352

*CONN
*I *52:Q O *L 0.0 *D DFFX1_RVT *C 28.256 9.408
*I *78:A5 I *L 463.8743 *C 28.18 5.741