*SPEF "1481-1998"
*DESIGN "s386"
*DATE "Sun Mar 10 15:00:54 2019"
*VENDOR "Synopsys, Inc."
*PROGRAM "icc_shell"
*VERSION "L-2016.03-SP5-1"
*DESIGN_FLOW "PIN_CAP NONE"
*DIVIDER /
*DELIMITER :
*BUS_DELIMITER [ ]
*T_UNIT 1 NS
*C_UNIT 1 FF
*R_UNIT 1 OHM
*L_UNIT 1 HENRY

*NAME_MAP
*1 GND
*2 VDDA
*3 VSS
*4 v5
*5 v4
*6 v3
*7 v2
*8 v1
*9 v0
*10 CK
*11 VDD
*12 v13_D_9
*13 v13_D_8
*14 v13_D_7
*15 v13_D_6
*16 v13_D_12
*17 v13_D_11
*18 v13_D_10
*19 v6
*20 Lv13_D_0
*21 DFF_5/q_reg
*22 U120
*23 DFF_4/q_reg
*24 DFF_3/q_reg
*25 DFF_2/q_reg
*26 DFF_1/q_reg
*27 DFF_0/q_reg
*28 v7
*29 U141
*30 U130
*31 U129
*32 U126
*33 U90
*34 U89
*35 U95
*36 Lv13_D_1
*37 U134
*38 v8
*39 U146
*40 U123
*41 U110
*42 U96
*43 U94
*44 Lv13_D_2
*45 U138
*46 v9
*47 U131
*48 U104
*49 U103
*50 U91
*51 Lv13_D_3
*52 U142
*53 v10
*54 U145
*55 U127
*56 U116
*57 U107
*58 Lv13_D_4
*59 U117
*60 v11
*61 U136
*62 U135
*63 U125
*64 U121
*65 U105
*66 U93
*67 Lv13_D_5
*68 U122
*69 v12
*70 U132
*71 U112
*72 n33
*73 U133
*74 n57
*75 U137
*76 n43
*77 U143
*78 n17
*79 U140
*80 U128
*81 U139
*82 U99
*83 U98
*84 n41
*85 U144
*86 U108
*87 U81
*88 n3
*89 n42
*90 U83
*91 n40
*92 n39
*93 U78
*94 n58
*95 U119
*96 n44
*97 n13
*98 U102
*99 n46
*100 n45
*101 U100
*102 U92
*103 n56
*104 n16
*105 U101
*106 U84
*107 n15
*108 U97
*109 n54
*110 n55
*111 n53
*112 n36
*113 U106
*114 n35
*115 U75
*116 n4
*117 U86
*118 n10
*119 n59
*120 U87
*121 n8
*122 U115
*123 U109
*124 n31
*125 U124
*126 U85
*127 n32
*128 n30
*129 n29
*130 n23
*131 U76
*132 n28
*133 U80
*134 n60
*135 n6
*136 U77
*137 U74
*138 n38
*139 U118
*140 n34
*141 n37
*142 n1
*143 Lv13_D_12
*144 n22
*145 U114
*146 n14
*147 n21
*148 n19
*149 U113
*150 n20
*151 U82
*152 n18
*153 U111
*154 Lv13_D_9
*155 n51
*156 U79
*157 Lv13_D_8
*158 n5
*159 n48
*160 n47
*161 Lv13_D_11
*162 n2
*163 n52
*164 Lv13_D_10
*165 n50
*166 n26
*167 U88
*168 n27
*169 n25
*170 Lv13_D_6
*171 n9
*172 n49
*173 n24
*174 Lv13_D_7
*175 n61
*176 n62
*177 n63

*PORTS
*1 I *L 0.0 *S 0.0 0.0
*2 I *L 0.0 *S 0.0 0.0
*3 I *L 0.0 *S 0.0 0.0
*4 I *L 0.0 *S 0.0 0.0
*5 I *L 0.0 *S 0.0 0.0
*6 I *L 0.0 *S 0.0 0.0
*7 I *L 0.0 *S 0.0 0.0
*8 I *L 0.0 *S 0.0 0.0
*9 I *L 0.0 *S 0.0 0.0
*10 I *L 0.0 *S 0.0 0.0
*11 I *L 0.0 *S 0.0 0.0
*12 O *L 300.0 *S 0.0 0.0
*13 O *L 300.0 *S 0.0 0.0
*14 O *L 300.0 *S 0.0 0.0
*15 O *L 300.0 *S 0.0 0.0
*16 O *L 300.0 *S 0.0 0.0
*17 O *L 300.0 *S 0.0 0.0
*18 O *L 300.0 *S 0.0 0.0
*19 I *L 0.0 *S 0.0 0.0

*D_NET *20 0.912222

*CONN
*I *21:D I *L 496.4084 *C 15.519 7.639
*I *22:Y O *L 0.0 *D OA21X1_RVT *C 15.184 15.372
*N *20:3 *C 15.032 7.736
*N *20:4 *C 15.032 7.736
*N *20:5 *C 15.336 15.184
*N *20:6 *C 15.336 15.184
*N *20:7 *C 15.26 7.766
*N *20:8 *C 15.316 15.206
*N *20:9 *C 15.316 15.493
*N *20:10 *C 15.032 7.782
*N *20:11 *C 15.032 15.184
*N *20:12 *C 15.289 15.184

*CAP
1 *21:D 0.02353743
2 *22:Y 0.004862383
3 *20:3 0.009391316
4 *20:4 0.01133672
5 *20:5 0.005984437
6 *20:6 0.004312794
7 *20:7 0.03487415
8 *20:8 0.02139073
9 *20:9 0.02194032
10 *20:10 0.1907423
11 *20:11 0.1938742
12 *20:12 0.01850766
13 *20:11 *114:10 0.1616294
14 *20:10 *114:15 0.1616294
15 *20:11 *155:21 0.02410445
16 *20:11 *155:20 0.02410445

*RES
1 *20:3 *20:4 1.0
2 *20:5 *20:6 1.0
3 *20:4 *20:7 0.05
4 *20:7 *21:D 0.9576
5 *20:8 *20:6 0.04750001
6 *20:8 *20:9 0.250064
7 *20:9 *22:Y 0.18
8 *20:3 *20:10 0.02738095
9 *20:10 *20:11 13.11936
10 *20:11 *20:12 0.3687532
11 *20:12 *20:5 0.01424243

*END

*D_NET *10 3.776992

*CONN
*I *21:CLK I *L 619.3525 *C 15.792 6.824
*I *23:CLK I *L 619.3525 *C 8.344 6.52
*I *24:CLK I *L 619.3525 *C 18.832 6.52
*I *25:CLK I *L 619.3525 *C 15.184 6.52
*I *26:CLK I *L 619.3525 *C 16.4 20.2
*I *27:CLK I *L 619.3525 *C 8.344 13.512
*P *10 I *C 17.768 0.028
*N *10:8 *C 17.768 0.136
*N *10:9 *C 17.768 0.136
*N *10:10 *C 17.92 0.136
*N *10:11 *C 17.92 0.136
*N *10:12 *C 17.92 6.216
*N *10:13 *C 17.92 6.216
*N *10:14 *C 15.792 6.824
*N *10:15 *C 15.792 6.824
*N *10:16 *C 15.792 6.824
*N *10:17 *C 8.344 6.52
*N *10:18 *C 8.344 6.52
*N *10:19 *C 8.496 6.52
*N *10:20 *C 8.496 6.52
*N *10:21 *C 8.496 6.216
*N *10:22 *C 8.496 6.216
*N *10:23 *C 18.832 6.52
*N *10:24 *C 18.832 6.52
*N *10:25 *C 18.832 6.52
*N *10:26 *C 18.832 6.216
*N *10:27 *C 18.832 6.216
*N *10:28 *C 15.184 6.52
*N *10:29 *C 15.184 6.52
*N *10:30 *C 15.488 6.216
*N *10:31 *C 15.488 6.216
*N *10:32 *C 16.4 20.2
*N *10:33 *C 16.4 20.2
*N *10:34 *C 15.792 20.2
*N *10:35 *C 15.792 20.2
*N *10:36 *C 15.488 6.216
*N *10:37 *C 8.344 13.512
*N *10:38 *C 8.344 13.512
*N *10:39 *C 8.344 13.512
*N *10:40 *C 8.344 13.512
*N *10:41 *C 6.368 13.512
*N *10:42 *C 6.368 13.512
*N *10:43 *C 6.368 6.216
*N *10:44 *C 6.368 6.216
*N *10:45 *C 15.488 6.52
*N *10:46 *C 15.488 6.824

*CAP
1 *21:CLK 0.0
2 *23:CLK 0.0
3 *24:CLK 0.0
4 *25:CLK 0.0
5 *26:CLK 0.0
6 *27:CLK 0.0
7 *10 0.01926027
8 *10:8 0.01314289
9 *10:9 0.01926027
10 *10:10 0.2334311
11 *10:11 0.01314289
12 *10:12 0.1265327
13 *10:13 0.2334311
14 *10:14 0.01502512
15 *10:15 0.02777289
16 *10:16 0.5239043
17 *10:17 0.01455962
18 *10:18 0.02907536
19 *10:19 0.01860612
20 *10:20 0.01451574
21 *10:21 0.3422018
22 *10:22 0.01860612
23 *10:23 0.01357031
24 *10:24 0.02664568
25 *10:25 0.03149055
26 *10:26 0.03709364
27 *10:27 0.01841518
28 *10:28 0.01362578
29 *10:29 0.02969392
30 *10:30 0.02560031
31 *10:31 0.01723144
32 *10:32 0.01560054
33 *10:33 0.04553794
34 *10:34 0.5008825
35 *10:35 0.0299374
36 *10:36 0.3469458
37 *10:37 0.01477847
38 *10:38 0.02907939
39 *10:39 0.02744612
40 *10:40 0.09281915
41 *10:41 0.07967395
42 *10:42 0.2822936
43 *10:43 0.08469498
44 *10:44 0.2822936
45 *10:45 0.03329958
46 *10:46 0.03587431

*RES
1 *10:8 *10:9 0.5
2 *10:10 *10:11 0.5
3 *10:12 *10:13 0.5
4 *10:14 *21:CLK 1.0
5 *10:15 *10:14 0.5
6 *10:16 *10:15 0.5
7 *10:17 *23:CLK 1.0
8 *10:18 *10:17 0.5
9 *10:19 *10:20 0.5
10 *10:21 *10:22 0.5
11 *10:23 *24:CLK 1.0
12 *10:24 *10:23 0.5
13 *10:25 *10:24 0.5
14 *10:26 *10:27 0.5
15 *10:28 *25:CLK 1.0
16 *10:29 *10:28 0.5
17 *10:30 *10:31 0.5
18 *10:32 *26:CLK 1.0
19 *10:33 *10:32 0.5
20 *10:34 *10:35 0.5
21 *10:36 *10:30 0.5
22 *10:37 *27:CLK 1.0
23 *10:38 *10:37 0.5
24 *10:39 *10:38 0.5
25 *10:40 *10:39 0.5
26 *10:41 *10:42 0.5
27 *10:43 *10:44 0.5
28 *10 *10:9 0.1043326
29 *10:18 *10:20 0.2068502
30 *10:29 *10:45 0.4742342
31 *10:31 *10:45 0.4421949
32 *10:35 *10:33 1.007162
33 *10:8 *10:11 0.2068502
34 *10:44 *10:42 12.92967
35 *10:22 *10:19 0.4781764
36 *10:30 *10:46 1.004322
37 *10:46 *10:16 0.4510143
38 *10:16 *10:34 23.78654
39 *10:10 *10:13 10.7598
40 *10:27 *10:25 0.4781764
41 *10:43 *10:21 3.701207
42 *10:21 *10:36 12.38651
43 *10:36 *10:12 4.245109
44 *10:12 *10:26 1.539422
45 *10:41 *10:40 3.436321

*END

*D_NET *28 2.329762

*CONN
*I *21:Q O *L 0.0 *D DFFX1_RVT *C 18.832 7.255
*I *29:A3 I *L 481.0668 *C 21.112 15.201
*I *30:A1 I *L 450.5898 *C 20.506 10.584
*I *31:A3 I *L 492.0692 *C 19.618 9.408
*I *32:A1 I *L 450.5898 *C 18.072 16.096
*I *33:A2 I *L 431.813 *C 20.96 16.884
*I *34:A1 I *L 526.317 *C 21.416 10.736
*I *35:A I *L 518.4735 *C 18.072 19.136
*N *28:9 *C 18.832 7.255
*N *28:10 *C 19.618 9.408
*N *28:11 *C 20.96 15.032
*N *28:12 *C 20.96 15.032
*N *28:13 *C 21.112 15.201
*N *28:14 *C 20.96 16.884
*N *28:15 *C 19.592 8.648
*N *28:16 *C 19.592 8.648
*N *28:17 *C 20.504 8.648
*N *28:18 *C 20.504 8.648
*N *28:19 *C 20.504 15.032
*N *28:20 *C 20.504 15.032
*N *28:21 *C 20.504 11.08
*N *28:22 *C 20.504 11.08
*N *28:23 *C 18.072 19.136
*N *28:24 *C 18.072 16.096
*N *28:25 *C 18.224 15.032
*N *28:26 *C 18.224 15.032
*N *28:27 *C 20.566 11.103
*N *28:28 *C 20.566 11.077
*N *28:29 *C 20.808 10.651
*N *28:30 *C 20.808 11.077
*N *28:31 *C 20.808 10.75
*N *28:32 *C 21.416 10.75
*N *28:33 *C 20.908 16.856
*N *28:34 *C 18.118 16.096
*N *28:35 *C 18.119 19.136
*N *28:36 *C 18.224 19.136
*N *28:37 *C 18.224 16.096
*N *28:38 *C 19.592 7.28
*N *28:39 *C 20.504 10.643
*N *28:40 *C 20.504 10.777
*N *28:41 *C 20.504 11.034
*N *28:42 *C 20.504 11.126
*N *28:43 *C 20.96 16.838
*N *28:44 *C 21.112 15.032
*N *28:45 *C 21.112 15.155

*CAP
1 *21:Q 0.0
2 *29:A3 0.0
3 *30:A1 0.02375589
4 *31:A3 0.0
5 *32:A1 0.0
6 *33:A2 0.008827656
7 *34:A1 0.04622018
8 *35:A 0.0
9 *28:9 0.02780769
10 *28:10 0.03430006
11 *28:11 0.02104341
12 *28:12 0.03159317
13 *28:13 0.0121147
14 *28:14 0.01359684
15 *28:15 0.04185287
16 *28:16 0.08999237
17 *28:17 0.04185287
18 *28:18 0.06593816
19 *28:19 0.1133999
20 *28:20 0.09073135
21 *28:21 0.01712924
22 *28:22 0.01594405
23 *28:23 0.005092755
24 *28:24 0.01342475
25 *28:25 0.09235645
26 *28:26 6.499514e-05
27 *28:27 0.02628293
28 *28:28 0.01596436
29 *28:29 0.02705508
30 *28:30 0.03516166
31 *28:31 0.0561793
32 *28:32 0.007280306
33 *28:33 0.008827656
34 *28:34 0.02109428
35 *28:35 0.01368017
36 *28:36 0.1037214
37 *28:37 0.1028685
38 *28:38 0.08350001
39 *28:39 0.07888377
40 *28:40 0.02802559
41 *28:41 0.01809373
42 *28:42 0.1048468
43 *28:43 0.03609446
44 *28:44 0.009607914
45 *28:45 0.01262706
46 *28:20 *94:8 0.08710964
47 *28:42 *94:9 0.08710964
48 *28:44 *107:24 0.007840602
49 *28:44 *107:18 0.0007875144
50 *28:36 *107:22 0.05121642
51 *28:37 *107:22 0.1128541
52 *28:26 *107:14 0.06163771
53 *28:39 *110:10 0.05996791
54 *28:18 *110:11 0.05996791
55 *28:43 *176:50 0.01753695
56 *28:43 *176:49 0.06898753
57 *28:43 *176:29 0.06898753
58 *28:20 *176:21 0.0244622
59 *28:42 *176:48 0.0244622

*RES
1 *28:9 *21:Q 1.0
2 *28:10 *31:A3 1.0
3 *28:11 *28:12 0.5
4 *28:13 *29:A3 1.0
5 *28:14 *33:A2 1.0
6 *28:15 *28:16 0.5
7 *28:17 *28:18 0.5
8 *28:19 *28:20 0.5
9 *28:21 *28:22 1.0
10 *28:23 *35:A 1.0
11 *28:24 *32:A1 1.0
12 *28:25 *28:26 0.5
13 *28:22 *28:27 0.108
14 *28:22 *28:28 0.1045
15 *30:A1 *28:29 0.5709091
16 *28:28 *28:27 0.03487805
17 *28:27 *28:30 0.5078182
18 *28:29 *28:31 0.1161818
19 *28:31 *28:30 0.5605714
20 *28:31 *34:A1 1.136
21 *34:A1 *28:32 0.01633334
22 *28:33 *33:A2 0.06418919
23 *28:24 *28:34 0.02738095
24 *28:23 *28:35 0.01424243
25 *28:35 *28:36 0.1439315
26 *28:34 *28:37 0.1337884
27 *28:26 *28:37 1.807639
28 *28:37 *28:36 5.328768
29 *28:9 *28:38 1.323215
30 *28:38 *28:16 2.344863
31 *28:16 *28:10 1.273214
32 *28:39 *28:40 0.1701587
33 *28:41 *28:21 0.05476191
34 *28:21 *28:42 0.05476191
35 *28:18 *28:39 3.466448
36 *28:40 *28:41 0.3684356
37 *28:42 *28:20 6.87846
38 *28:43 *28:14 0.02738095
39 *28:12 *28:43 3.127326
40 *28:12 *28:44 0.2067477
41 *28:45 *28:13 0.02738095
42 *28:44 *28:45 0.1381859
43 *28:25 *28:19 3.976072
44 *28:19 *28:11 0.7338625
45 *28:15 *28:17 1.54397

*END

*D_NET *36 0.9920529

*CONN
*I *23:D I *L 496.4084 *C 8.617 5.705
*I *37:Y O *L 0.0 *D AND2X1_RVT *C 14.88 9.578
*N *36:3 *C 8.8 5.608
*N *36:4 *C 8.8 5.608
*N *36:5 *C 8.8 6.216
*N *36:6 *C 8.8 6.216
*N *36:7 *C 13.512 6.216
*N *36:8 *C 13.512 6.216
*N *36:9 *C 13.512 8.8
*N *36:10 *C 13.512 8.8
*N *36:11 *C 14.705 8.8
*N *36:12 *C 8.8 5.654
*N *36:13 *C 13.512 8.754

*CAP
1 *23:D 0.03321593
2 *37:Y 0.004973768
3 *36:3 0.01231036
4 *36:4 0.03321593
5 *36:5 0.1420981
6 *36:6 0.03544384
7 *36:7 0.1420981
8 *36:8 0.1123037
9 *36:9 0.01056073
10 *36:10 0.09321947
11 *36:11 0.09819324
12 *36:12 0.0477542
13 *36:13 0.1228644
14 *36:7 *44:5 0.05190066
15 *36:5 *44:5 0.05190066

*RES
1 *36:3 *36:4 1.0
2 *36:5 *36:6 0.5
3 *36:7 *36:8 0.5
4 *36:9 *36:10 1.0
5 *23:D *36:4 0.1635294
6 *36:10 *36:11 2.290254
7 *36:11 *37:Y 0.11125
8 *36:3 *36:12 0.02738096
9 *36:12 *36:6 0.9235145
10 *36:13 *36:9 0.02738096
11 *36:8 *36:13 4.436333
12 *36:5 *36:7 8.317689

*END

*D_NET *38 2.812232

*CONN
*I *23:Q O *L 0.0 *D DFFX1_RVT *C 5.304 6.09
*I *39:A1 I *L 450.5898 *C 18.981 13.99
*I *40:A1 I *L 503.5117 *C 12.727 15.792
*I *41:A2 I *L 442.1154 *C 11.992 17.616
*I *42:A3 I *L 412.1762 *C 19.592 12.446
*I *43:A I *L 688.1503 *C 17.31 14.269
*N *38:7 *C 12.296 13.816
*N *38:8 *C 12.296 13.816
*N *38:9 *C 5.304 6.09
*N *38:10 *C 5.304 6.824
*N *38:11 *C 5.304 6.824
*N *38:12 *C 12.296 6.824
*N *38:13 *C 12.296 6.824
*N *38:14 *C 17.464 14.272
*N *38:15 *C 17.464 14.272
*N *38:16 *C 17.464 13.816
*N *38:17 *C 17.464 13.816
*N *38:18 *C 12.727 15.792
*N *38:19 *C 11.992 17.616
*N *38:20 *C 20.048 12.448
*N *38:21 *C 20.048 12.448
*N *38:22 *C 20.048 13.816
*N *38:23 *C 20.048 13.816
*N *38:24 *C 18.68 13.816
*N *38:25 *C 18.68 13.816
*N *38:26 *C 18.528 13.816
*N *38:27 *C 18.528 13.816
*N *38:28 *C 18.695 13.953
*N *38:29 *C 19.983 12.445
*N *38:30 *C 5.304 6.136
*N *38:31 *C 11.992 17.57
*N *38:32 *C 11.992 16.552
*N *38:33 *C 12.144 16.552
*N *38:34 *C 12.144 15.488
*N *38:35 *C 12.296 15.488
*N *38:36 *C 12.296 15.792
*N *38:37 *C 12.681 15.792
*N *38:38 *C 17.464 13.991
*N *38:39 *C 17.464 14.226
*N *38:40 *C 20.048 12.494

*CAP
1 *23:Q 0.0
2 *39:A1 0.02215786
3 *40:A1 0.0
4 *41:A2 0.0
5 *42:A3 0.03386229
6 *43:A 0.03510524
7 *38:7 0.1012905
8 *38:8 0.302113
9 *38:9 0.01009055
10 *38:10 0.2769363
11 *38:11 0.03395545
12 *38:12 0.2769363
13 *38:13 0.2350243
14 *38:14 0.0128674
15 *38:15 0.03510524
16 *38:16 0.1434937
17 *38:17 0.01527044
18 *38:18 0.01157915
19 *38:19 0.008353567
20 *38:20 0.009623297
21 *38:21 0.00625631
22 *38:22 0.04758507
23 *38:23 0.06044025
24 *38:24 0.01823427
25 *38:25 0.009380302
26 *38:26 0.08978825
27 *38:27 0.01823427
28 *38:28 0.03153817
29 *38:29 0.04011859
30 *38:30 0.04404599
31 *38:31 0.04224741
32 *38:32 0.04357424
33 *38:33 0.04418093
34 *38:34 0.04222408
35 *38:35 0.08558059
36 *38:36 0.02787429
37 *38:37 0.02868513
38 *38:38 0.02761264
39 *38:39 0.02520959
40 *38:40 0.07006355
41 *38:22 *74:5 0.03090089
42 *38:13 *88:5 0.0166612
43 *38:13 *88:9 0.0166612
44 *38:16 *162:7 0.02802707
45 *38:16 *162:5 0.02802707
46 *38:13 *165:13 0.03914076
47 *38:13 *165:9 0.03914076
48 *38:8 *172:7 0.03086929
49 *38:8 *172:12 0.03086929
50 *38:16 *177:22 0.09264817
51 *38:7 *177:20 0.09264817

*RES
1 *38:7 *38:8 0.5
2 *38:9 *23:Q 1.0
3 *38:10 *38:11 0.5
4 *38:12 *38:13 0.5
5 *38:14 *38:15 1.0
6 *38:16 *38:17 0.5
7 *38:18 *40:A1 1.0
8 *38:19 *41:A2 1.0
9 *38:20 *38:21 1.0
10 *38:22 *38:23 0.5
11 *38:24 *38:25 1.0
12 *38:26 *38:27 0.5
13 *43:A *38:15 0.155353
14 *38:25 *38:28 0.17575
15 *38:28 *39:A1 0.2675
16 *42:A3 *38:29 0.6511819
17 *38:29 *38:21 0.04704762
18 *38:9 *38:30 0.02738095
19 *38:30 *38:11 1.14548
20 *38:31 *38:19 0.02738095
21 *38:32 *38:33 0.2138529
22 *38:32 *38:31 1.720534
23 *38:34 *38:33 1.805
24 *38:34 *38:35 0.1983517
25 *38:13 *38:8 12.38728
26 *38:8 *38:35 2.887362
27 *38:35 *38:36 0.4584127
28 *38:36 *38:37 0.5942797
29 *38:37 *38:18 0.02555556
30 *38:17 *38:38 0.2327441
31 *38:39 *38:14 0.02738095
32 *38:38 *38:39 0.3368964
33 *38:27 *38:24 0.09097686
34 *38:20 *38:40 0.02738095
35 *38:40 *38:23 2.27029
36 *38:10 *38:12 12.38803
37 *38:7 *38:16 9.130674
38 *38:16 *38:26 1.805
39 *38:26 *38:22 2.621091

*END

*D_NET *44 0.8264574

*CONN
*I *24:D I *L 496.4084 *C 18.559 5.705
*I *45:Y O *L 0.0 *D NAND3X0_RVT *C 10.472 6.345
*N *44:3 *C 10.928 5.912
*N *44:4 *C 10.928 5.912
*N *44:5 *C 10.928 5.912
*N *44:6 *C 17.92 5.912
*N *44:7 *C 17.92 5.912
*N *44:8 *C 17.92 5.76
*N *44:9 *C 17.92 5.76
*N *44:10 *C 18.513 5.76

*CAP
1 *24:D 0.005370718
2 *45:Y 0.02933262
3 *44:3 0.01365767
4 *44:4 0.02933262
5 *44:5 0.2406783
6 *44:6 0.2270206
7 *44:7 0.0190142
8 *44:8 0.0190142
9 *44:9 0.06693218
10 *44:10 0.07230289
11 *44:5 *36:7 0.05190066
12 *44:5 *36:5 0.05190066

*RES
1 *44:3 *44:4 1.0
2 *44:5 *44:3 0.5
3 *44:6 *44:7 0.5
4 *44:8 *44:9 1.0
5 *45:Y *44:4 0.3263637
6 *44:9 *44:10 1.095188
7 *24:D *44:10 0.16
8 *44:8 *44:7 0.2207153
9 *44:5 *44:6 12.38803

*END

*D_NET *46 1.892699

*CONN
*I *24:Q O *L 0.0 *D DFFX1_RVT *C 21.872 6.087
*I *47:A I *L 688.1503 *C 11.08 7.546
*I *48:A2 I *L 499.5953 *C 7.137 9.862
*I *49:A1 I *L 526.317 *C 7.762 7.432
*I *50:A2 I *L 519.0556 *C 11.84 8.8
*N *46:6 *C 7.28 7.736
*N *46:7 *C 7.28 7.736
*N *46:8 *C 7.128 9.408
*N *46:9 *C 7.128 9.408
*N *46:10 *C 7.762 7.432
*N *46:11 *C 7.888 7.736
*N *46:12 *C 7.888 7.736
*N *46:13 *C 11.08 7.546
*N *46:14 *C 11.84 8.8
*N *46:15 *C 21.872 6.087
*N *46:16 *C 21.872 7.736
*N *46:17 *C 21.872 7.736
*N *46:18 *C 11.08 7.736
*N *46:19 *C 11.08 7.736
*N *46:20 *C 7.128 9.362
*N *46:21 *C 7.128 8.344
*N *46:22 *C 7.28 8.344
*N *46:23 *C 7.822 7.432
*N *46:24 *C 8.036 7.432
*N *46:25 *C 11.08 7.592
*N *46:26 *C 11.536 7.736
*N *46:27 *C 11.536 8.8
*N *46:28 *C 11.793 8.8
*N *46:29 *C 21.872 6.133

*CAP
1 *24:Q 0.0
2 *47:A 0.0
3 *48:A2 0.02689357
4 *49:A1 0.0
5 *50:A2 0.0
6 *46:6 0.02417412
7 *46:7 0.01809916
8 *46:8 0.01211308
9 *46:9 0.02689357
10 *46:10 0.009437636
11 *46:11 0.08245728
12 *46:12 0.0287615
13 *46:13 0.01317462
14 *46:14 0.005281562
15 *46:15 0.009365325
16 *46:16 0.3376713
17 *46:17 0.06614333
18 *46:18 0.3959545
19 *46:19 0.03237882
20 *46:20 0.05690631
21 *46:21 0.05497941
22 *46:22 0.02828535
23 *46:23 0.01330664
24 *46:24 0.0326305
25 *46:25 0.02198077
26 *46:26 0.07131827
27 *46:27 0.05883957
28 *46:28 0.01637554
29 *46:29 0.07550866
30 *46:18 *88:6 0.03323158
31 *46:18 *88:4 0.03323158
32 *46:18 *89:7 0.05296831
33 *46:11 *89:9 0.05296831
34 *46:18 *91:6 0.05145924
35 *46:18 *91:5 0.05145924
36 *46:11 *99:14 0.04125655
37 *46:6 *99:12 0.01164796
38 *46:12 *99:15 0.009197644
39 *46:10 *99:15 0.004008126
40 *46:22 *99:15 0.007426796
41 *46:7 *99:15 0.007426796
42 *46:7 *99:24 0.0174869

*RES
1 *46:6 *46:7 0.5
2 *46:8 *46:9 1.0
3 *46:10 *49:A1 1.0
4 *46:11 *46:12 0.5
5 *46:13 *47:A 1.0
6 *46:14 *50:A2 1.0
7 *46:15 *24:Q 1.0
8 *46:16 *46:17 0.5
9 *46:18 *46:19 0.5
10 *46:9 *48:A2 0.7200001
11 *46:20 *46:8 0.02738095
12 *46:21 *46:22 0.2138529
13 *46:21 *46:20 1.720534
14 *46:7 *46:22 0.997726
15 *46:10 *46:23 0.03448276
16 *46:23 *46:24 0.2138931
17 *46:24 *46:12 0.6392859
18 *46:13 *46:25 0.02738095
19 *46:25 *46:19 0.1901661
20 *46:19 *46:26 0.7296847
21 *46:26 *46:27 1.805
22 *46:27 *46:28 0.3687532
23 *46:28 *46:14 0.01424243
24 *46:15 *46:29 0.02738095
25 *46:29 *46:17 2.770532
26 *46:6 *46:11 1.001152
27 *46:11 *46:18 5.601725
28 *46:18 *46:16 19.17245

*END

*D_NET *51 0.3455486

*CONN
*I *25:D I *L 496.4084 *C 15.457 5.705
*I *52:Y O *L 0.0 *D AO21X1_RVT *C 14.272 8.056
*N *51:3 *C 14.424 7.128
*N *51:4 *C 14.424 7.128
*N *51:5 *C 15.64 6.064
*N *51:6 *C 15.64 6.064
*N *51:7 *C 14.348 7.128
*N *51:8 *C 15.64 5.686
*N *51:9 *C 14.471 7.128
*N *51:10 *C 15.64 7.128
*N *51:11 *C 15.64 6.11

*CAP
1 *25:D 0.01355209
2 *52:Y 0.006051718
3 *51:3 0.005273832
4 *51:4 0.02341436
5 *51:5 0.009591828
6 *51:6 0.01466733
7 *51:7 0.02946608
8 *51:8 0.02821941
9 *51:9 0.06523159
10 *51:10 0.1002231
11 *51:11 0.04985721

*RES
1 *51:3 *51:4 1.0
2 *51:5 *51:6 1.0
3 *52:Y *51:7 0.1447369
4 *51:7 *51:4 0.03226891
5 *25:D *51:8 0.1856818
6 *51:8 *51:6 0.6470664
7 *51:3 *51:9 0.01424243
8 *51:9 *51:10 1.997922
9 *51:5 *51:11 0.02738095
10 *51:11 *51:10 1.72316

*END

*D_NET *53 1.84083

*CONN
*I *25:Q O *L 0.0 *D DFFX1_RVT *C 12.144 6.084
*I *54:A1 I *L 503.5117 *C 9.256 9.064
*I *55:A I *L 688.1503 *C 10.777 10.925
*I *56:A3 I *L 393.9097 *C 6.976 12.792
*I *57:A1 I *L 543.9185 *C 8.066 10.776
*I *50:A1 I *L 496.1498 *C 11.688 9.104
*N *53:7 *C 12.144 6.084
*N *53:8 *C 6.824 12.752
*N *53:9 *C 6.824 12.752
*N *53:10 *C 6.824 11.08
*N *53:11 *C 6.824 11.08
*N *53:12 *C 10.776 9.256
*N *53:13 *C 10.776 9.256
*N *53:14 *C 11.688 9.256
*N *53:15 *C 11.688 9.256
*N *53:16 *C 11.688 9.104
*N *53:17 *C 8.066 10.776
*N *53:18 *C 8.192 11.08
*N *53:19 *C 8.192 11.08
*N *53:20 *C 9.263 9.256
*N *53:21 *C 9.263 9.256
*N *53:22 *C 10.624 10.928
*N *53:23 *C 10.624 10.928
*N *53:24 *C 10.624 10.472
*N *53:25 *C 10.624 10.472
*N *53:26 *C 9.256 10.472
*N *53:27 *C 9.256 10.472
*N *53:28 *C 8.496 10.472
*N *53:29 *C 8.496 10.472
*N *53:30 *C 8.496 11.08
*N *53:31 *C 8.496 11.08
*N *53:32 *C 6.976 12.752
*N *53:33 *C 10.701 10.898
*N *53:34 *C 6.824 12.706
*N *53:35 *C 8.126 10.776
*N *53:36 *C 8.192 10.777
*N *53:37 *C 10.624 10.882
*N *53:38 *C 10.624 7.584
*N *53:39 *C 10.928 7.584
*N *53:40 *C 10.624 9.256
*N *53:41 *C 10.764 9.408
*N *53:42 *C 10.764 9.56
*N *53:43 *C 10.928 6.064
*N *53:44 *C 12.097 6.064
*N *53:45 *C 11.688 9.15

*CAP
1 *25:Q 0.0
2 *54:A1 0.01866098
3 *55:A 0.0168127
4 *56:A3 0.01919185
5 *57:A1 0.0
6 *50:A1 0.0
7 *53:7 0.004250364
8 *53:8 0.009417049
9 *53:9 0.01318157
10 *53:10 0.003882922
11 *53:11 0.06824765
12 *53:12 0.05559858
13 *53:13 0.0113278
14 *53:14 0.05559858
15 *53:15 0.01510402
16 *53:16 0.01147965
17 *53:17 0.01281202
18 *53:18 0.02008533
19 *53:19 0.0179865
20 *53:20 0.02236534
21 *53:21 0.01866098
22 *53:22 0.01160198
23 *53:23 0.0176947
24 *53:24 0.0216258
25 *53:25 0.05558849
26 *53:26 0.05873982
27 *53:27 0.02236534
28 *53:28 0.03014907
29 *53:29 0.03711402
30 *53:30 0.03014907
31 *53:31 0.01620241
32 *53:32 0.006010276
33 *53:33 0.03450741
34 *53:34 0.0776647
35 *53:35 0.01870237
36 *53:36 0.02387685
37 *53:37 0.014068
38 *53:38 0.0689422
39 *53:39 0.050978
40 *53:40 0.06712052
41 *53:41 0.03578984
42 *53:42 0.08153567
43 *53:43 0.07640065
44 *53:44 0.05019912
45 *53:45 0.02658368
46 *53:25 *84:21 0.06029208
47 *53:38 *84:10 0.06178205
48 *53:24 *9:13 0.02105892
49 *53:26 *9:9 0.06038722
50 *53:20 *9:44 0.1164488
51 *53:39 *118:17 0.08185058
52 *53:18 *146:16 0.05536823
53 *53:10 *146:18 0.05536823

*RES
1 *53:7 *25:Q 1.0
2 *53:8 *53:9 1.0
3 *53:10 *53:11 0.5
4 *53:12 *53:13 0.5
5 *53:14 *53:15 0.5
6 *53:16 *50:A1 1.0
7 *53:17 *57:A1 1.0
8 *53:18 *53:19 0.5
9 *53:20 *53:21 1.0
10 *53:22 *53:23 1.0
11 *53:24 *53:25 0.5
12 *53:26 *53:27 0.5
13 *53:28 *53:29 0.5
14 *53:30 *53:31 0.5
15 *53:9 *56:A3 0.3071667
16 *56:A3 *53:32 0.03541667
17 *54:A1 *53:21 0.244
18 *53:23 *53:33 0.05
19 *53:33 *55:A 0.3819
20 *53:34 *53:8 0.02738095
21 *53:11 *53:34 2.809962
22 *53:17 *53:35 0.03448276
23 *53:35 *53:36 0.1768965
24 *53:36 *53:19 0.4623702
25 *53:20 *53:27 2.117857
26 *53:37 *53:22 0.02738095
27 *53:38 *53:39 0.4697802
28 *53:38 *53:40 2.887362
29 *53:40 *53:41 0.2714286
30 *53:41 *53:42 0.1983517
31 *53:42 *53:25 1.628572
32 *53:25 *53:37 0.64416
33 *53:40 *53:13 0.2067477
34 *53:43 *53:39 2.617839
35 *53:43 *53:44 1.989839
36 *53:44 *53:7 0.0475
37 *53:16 *53:45 0.02738095
38 *53:45 *53:15 0.1234472
39 *53:10 *53:18 2.350363
40 *53:18 *53:31 0.4696042
41 *53:29 *53:26 1.269887
42 *53:26 *53:24 2.350363
43 *53:12 *53:14 1.528131
44 *53:28 *53:30 1.007162

*END

*D_NET *58 0.2403381

*CONN
*I *26:D I *L 496.4084 *C 16.127 21.015
*I *59:Y O *L 0.0 *D AO22X1_RVT *C 15.184 18.667
*N *58:3 *C 15.64 19.619
*N *58:4 *C 15.64 21.015

*CAP
1 *26:D 0.02298017
2 *59:Y 0.02512207
3 *58:3 0.09718887
4 *58:4 0.09504696

*RES
1 *59:Y *58:3 0.8018181
2 *58:3 *58:4 2.695257
3 *58:4 *26:D 0.8660179

*END

*D_NET *60 2.377694

*CONN
*I *26:Q O *L 0.0 *D DFFX1_RVT *C 19.44 20.656
*I *61:A3 I *L 492.0692 *C 18.832 10.606
*I *62:A1 I *L 481.3457 *C 17.692 10.928
*I *32:A2 I *L 405.9669 *C 18.221 15.792
*I *63:A2 I *L 511.8402 *C 18.551 17.464
*I *64:A3 I *L 391.832 *C 16.324 15.862
*I *65:A1 I *L 503.5117 *C 14.741 14.272
*I *66:A I *L 518.4735 *C 19.897 14.259
*N *60:9 *C 18.984 15.792
*N *60:10 *C 18.984 15.792
*N *60:11 *C 18.832 10.606
*N *60:12 *C 17.692 10.928
*N *60:13 *C 18.984 17.16
*N *60:14 *C 18.984 17.16
*N *60:15 *C 18.528 17.16
*N *60:16 *C 18.528 17.16
*N *60:17 *C 18.528 17.16
*N *60:18 *C 16.552 15.944
*N *60:19 *C 16.552 15.944
*N *60:20 *C 18.984 15.944
*N *60:21 *C 18.984 15.944
*N *60:22 *C 14.741 14.272
*N *60:23 *C 16.704 15.993
*N *60:24 *C 16.704 15.993
*N *60:25 *C 14.741 15.944
*N *60:26 *C 14.741 15.944
*N *60:27 *C 19.44 20.656
*N *60:28 *C 19.744 15.944
*N *60:29 *C 19.744 15.944
*N *60:30 *C 19.744 14.272
*N *60:31 *C 19.744 14.272
*N *60:32 *C 16.641 15.99
*N *60:33 *C 16.732 16.015
*N *60:34 *C 18.984 15.792
*N *60:35 *C 16.705 15.945
*N *60:36 *C 18.832 10.928
*N *60:37 *C 18.832 10.652
*N *60:38 *C 18.832 15.944
*N *60:39 *C 18.984 20.656
*N *60:40 *C 19.393 20.656
*N *60:41 *C 19.744 14.318

*CAP
1 *26:Q 0.0
2 *61:A3 0.0
3 *62:A1 0.01108633
4 *32:A2 0.04396292
5 *63:A2 0.01670309
6 *64:A3 0.01460592
7 *65:A1 0.0
8 *66:A 0.01421526
9 *60:9 0.0129048
10 *60:10 0.006797906
11 *60:11 0.01203838
12 *60:12 0.06540547
13 *60:13 0.02601017
14 *60:14 0.1138521
15 *60:15 0.02601017
16 *60:16 0.01463826
17 *60:17 0.03134136
18 *60:18 0.1756802
19 *60:19 0.009165921
20 *60:20 0.1359795
21 *60:21 0.02101308
22 *60:22 0.08749188
23 *60:23 0.01002792
24 *60:24 0.02742127
25 *60:25 0.07888555
26 *60:26 0.08749188
27 *60:27 0.004206715
28 *60:28 0.03918482
29 *60:29 0.04899662
30 *60:30 1.164153e-10
31 *60:31 0.01421526
32 *60:32 0.01984546
33 *60:33 0.02218174
34 *60:34 0.05076082
35 *60:35 0.01919384
36 *60:36 0.1949816
37 *60:37 0.02043198
38 *60:38 0.1390584
39 *60:39 0.1271587
40 *60:40 0.01883205
41 *60:41 0.04899662
42 *60:14 *72:21 0.0137288
43 *60:14 *72:20 0.01839134
44 *60:14 *72:19 0.0208593
45 *60:14 *72:18 0.02441883
46 *60:21 *72:16 0.05478112
47 *60:14 *72:17 0.1124065
48 *60:38 *72:15 0.03904299
49 *60:38 *72:14 0.04100502
50 *60:38 *72:6 0.001962021
51 *60:31 *72:13 0.00277961
52 *60:41 *74:11 0.04064396
53 *60:30 *74:3 0.001401889
54 *60:41 *175:13 0.00345459
55 *60:29 *175:45 0.001229012
56 *60:41 *175:46 0.003775462
57 *60:41 *175:15 0.02464045
58 *60:41 *175:42 0.005302211
59 *60:30 *175:42 0.0001203271
60 *60:38 *175:42 0.006893613
61 *60:36 *175:10 0.006893613
62 *60:36 *175:40 0.0002408148
63 *60:36 *175:28 8.260164e-05
64 *60:36 *175:41 0.0003234165
65 *60:36 *175:8 0.03230548
66 *60:36 *175:39 0.05990355
67 *60:36 *175:27 0.0331661
68 *60:36 *175:38 0.0001803308
69 *60:36 *175:37 0.01115163
70 *60:37 *175:37 0.005583601
71 *60:37 *175:38 0.0002047197
72 *60:11 *175:38 4.774331e-05

*RES
1 *60:9 *60:10 1.0
2 *60:11 *61:A3 1.0
3 *60:12 *62:A1 1.0
4 *60:13 *60:14 0.5
5 *60:15 *60:16 0.5
6 *60:16 *60:17 1.0
7 *60:18 *60:19 0.5
8 *60:20 *60:21 0.5
9 *60:22 *65:A1 1.0
10 *60:23 *60:24 1.0
11 *60:25 *60:26 0.5
12 *60:27 *26:Q 1.0
13 *60:28 *60:29 0.5
14 *60:30 *60:31 1.0
15 *64:A3 *60:32 0.4109091
16 *60:32 *60:24 0.191827
17 *60:24 *60:33 0.0475
18 *32:A2 *60:34 1.425605
19 *60:34 *60:10 1e-07
20 *60:17 *63:A2 0.344375
21 *60:31 *66:A 0.30875
22 *60:22 *60:26 2.884443
23 *60:19 *60:35 0.1545181
24 *60:35 *60:23 0.04750001
25 *60:12 *60:36 1.938858
26 *60:11 *60:37 0.02738096
27 *60:37 *60:36 0.4099743
28 *60:36 *60:38 8.858248
29 *60:38 *60:21 0.1865124
30 *60:9 *60:21 0.1934908
31 *60:21 *60:14 2.075756
32 *60:14 *60:39 6.145204
33 *60:39 *60:40 0.6367645
34 *60:40 *60:27 0.01424243
35 *60:30 *60:41 0.02738096
36 *60:41 *60:29 2.806844
37 *60:25 *60:18 3.135344
38 *60:18 *60:20 4.245109
39 *60:20 *60:28 1.260451
40 *60:15 *60:13 0.7409739

*END

*D_NET *67 0.3711224

*CONN
*I *27:D I *L 496.4084 *C 8.617 14.327
*I *68:Y O *L 0.0 *D NAND2X0_RVT *C 10.016 15.395
*N *67:3 *C 9.712 14.424
*N *67:4 *C 9.712 14.424
*N *67:5 *C 9.712 15.792
*N *67:6 *C 9.712 15.792
*N *67:7 *C 9.864 15.792
*N *67:8 *C 9.864 15.944
*N *67:9 *C 9.712 14.47
*N *67:10 *C 9.712 15.746

*CAP
1 *27:D 0.07462225
2 *68:Y 0.006772264
3 *67:3 0.009984143
4 *67:4 0.07462225
5 *67:5 0.01141341
6 *67:6 0.02045917
7 *67:7 0.02827908
8 *67:8 0.01459217
9 *67:9 0.04298327
10 *67:10 0.04441254
11 *67:10 *164:9 0.02149095
12 *67:9 *164:9 0.02149095

*RES
1 *67:3 *67:4 1.0
2 *67:5 *67:6 1.0
3 *27:D *67:4 1.236471
4 *67:6 *67:7 0.2012785
5 *67:7 *67:8 0.2268426
6 *67:8 *68:Y 0.204
7 *67:3 *67:9 0.02738096
8 *67:10 *67:5 0.02738095
9 *67:9 *67:10 2.184817

*END

*D_NET *69 1.634151

*CONN
*I *27:Q O *L 0.0 *D DFFX1_RVT *C 5.304 13.942
*I *62:A3 I *L 556.037 *C 17.008 10.61
*I *70:A I *L 688.1503 *C 14.118 14.269
*I *71:A1 I *L 450.5898 *C 16.093 12.792
*N *69:5 *C 17.008 10.61
*N *69:6 *C 14.272 14.272
*N *69:7 *C 14.272 14.272
*N *69:8 *C 14.272 13.208
*N *69:9 *C 14.272 13.208
*N *69:10 *C 15.944 13.208
*N *69:11 *C 15.944 13.208
*N *69:12 *C 15.944 12.753
*N *69:13 *C 15.944 12.753
*N *69:14 *C 5.304 13.942
*N *69:15 *C 5.304 13.208
*N *69:16 *C 5.304 13.208
*N *69:17 *C 16.062 12.75
*N *69:18 *C 5.304 13.896
*N *69:19 *C 14.272 14.226
*N *69:20 *C 15.944 12.707
*N *69:21 *C 15.944 12.799
*N *69:22 *C 15.944 11.688
*N *69:23 *C 16.096 11.688
*N *69:24 *C 16.096 10.624
*N *69:25 *C 16.961 10.624

*CAP
1 *27:Q 0.0
2 *62:A3 0.0
3 *70:A 0.04215729
4 *71:A1 0.01842939
5 *69:5 0.005073759
6 *69:6 0.01418045
7 *69:7 0.04215729
8 *69:8 0.3183738
9 *69:9 0.02649946
10 *69:10 0.07172399
11 *69:11 1e-10
12 *69:12 0.01378291
13 *69:13 0.01175309
14 *69:14 0.009328247
15 *69:15 0.2466498
16 *69:16 0.03186095
17 *69:17 0.006676301
18 *69:18 0.0411892
19 *69:19 0.04067991
20 *69:20 0.03391401
21 *69:21 0.01093344
22 *69:22 0.0387464
23 *69:23 0.03325113
24 *69:24 0.06422658
25 *69:25 0.04373104
26 *69:23 *111:10 0.01862196
27 *69:24 *111:10 0.01862196
28 *69:8 *114:9 1e-07
29 *69:19 *132:20 0.08036409
30 *69:8 *148:5 0.1304128
31 *69:15 *148:7 0.1304128
32 *69:24 *155:22 0.000556617
33 *69:23 *155:23 0.0006123219
34 *69:21 *155:23 0.05112867
35 *69:20 *155:23 0.01905032
36 *69:22 *155:22 0.01905032

*RES
1 *69:5 *62:A3 1.0
2 *69:6 *69:7 1.0
3 *69:8 *69:9 0.5
4 *69:10 *69:11 0.5
5 *69:12 *69:13 1.0
6 *69:14 *27:Q 1.0
7 *69:15 *69:16 0.25
8 *70:A *69:7 0.155353
9 *69:13 *71:A1 0.1309524
10 *71:A1 *69:17 0.05315476
11 *69:18 *69:14 0.02738095
12 *69:16 *69:18 1.145076
13 *69:19 *69:6 0.02738095
14 *69:9 *69:19 1.720348
15 *69:20 *69:12 0.05476191
16 *69:12 *69:21 0.05476191
17 *69:22 *69:20 1.727259
18 *69:22 *69:23 0.1983517
19 *69:21 *69:11 0.6558582
20 *69:24 *69:23 1.805
21 *69:24 *69:25 1.447778
22 *69:25 *69:5 0.04750001
23 *69:15 *69:8 15.9143
24 *69:8 *69:10 2.89194

*END

*D_NET *72 0.8555899

*CONN
*I *39:A2 I *L 405.9669 *C 18.857 14.272
*I *73:Y O *L 0.0 *D NAND2X0_RVT *C 19.592 18.739
*I *63:A1 I *L 481.1977 *C 18.756 17.7
*N *72:4 *C 19.136 17.768
*N *72:5 *C 19.136 17.768
*N *72:6 *C 18.984 14.424
*N *72:7 *C 18.984 14.424
*N *72:8 *C 19.744 19.288
*N *72:9 *C 19.744 19.288
*N *72:10 *C 18.857 14.421
*N *72:11 *C 18.922 14.421
*N *72:12 *C 19.114 17.643
*N *72:13 *C 19.012 14.446
*N *72:14 *C 18.984 14.47
*N *72:15 *C 18.984 15.64
*N *72:16 *C 19.136 15.64
*N *72:17 *C 19.136 17.615
*N *72:18 *C 19.136 17.814
*N *72:19 *C 19.136 18.482
*N *72:20 *C 19.136 18.574
*N *72:21 *C 19.136 18.832
*N *72:22 *C 19.744 18.832