*SPEF "1481-1998"
*DESIGN "s9234"
*DATE "Sat Mar  9 16:52:52 2019"
*VENDOR "Synopsys, Inc."
*PROGRAM "icc_shell"
*VERSION "L-2016.03-SP5-1"
*DESIGN_FLOW "PIN_CAP NONE"
*DIVIDER /
*DELIMITER :
*BUS_DELIMITER [ ]
*T_UNIT 1 NS
*C_UNIT 1 FF
*R_UNIT 1 OHM
*L_UNIT 1 HENRY

*NAME_MAP
*1 g22
*2 g107
*3 g102
*4 CK
*5 VDD
*6 GND
*7 VDDA
*8 VSS
*9 g36
*10 g32
*11 g319
*12 g314
*13 g310
*14 g306
*15 g301
*16 g23
*17 g45
*18 g44
*19 g42
*20 g41
*21 g40
*22 g39
*23 g38
*24 g37
*25 g562
*26 g561
*27 g560
*28 g559
*29 g558
*30 g557
*31 g47
*32 g46
*33 g94
*34 g89
*35 g705
*36 g702
*37 g639
*38 g567
*39 g564
*40 g563
*41 g4099
*42 g4098
*43 g3600
*44 g3222
*45 g2584
*46 g1293
*47 g1290
*48 g98
*49 g4107
*50 g4106
*51 g4105
*52 g4104
*53 g4103
*54 g4102
*55 g4101
*56 g4100
*57 g4422
*58 g4321
*59 g4307
*60 g4121
*61 g4112
*62 g4110
*63 g4109
*64 g4108
*65 g6360
*66 g6284
*67 g6282
*68 g5692
*69 g5469
*70 g5468
*71 g5137
*72 g4809
*73 g6728
*74 g6374
*75 g6372
*76 g6370
*77 g6368
*78 g6366
*79 g6364
*80 g6362
*81 g6450
*82 DFF_210/q_reg
*83 U878
*84 DFF_2/q_reg
*85 DFF_1/q_reg
*86 DFF_0/q_reg
*87 DFF_10/q_reg
*88 DFF_9/q_reg
*89 DFF_8/q_reg
*90 DFF_7/q_reg
*91 DFF_6/q_reg
*92 DFF_5/q_reg
*93 DFF_4/q_reg
*94 DFF_3/q_reg
*95 DFF_18/q_reg
*96 DFF_17/q_reg
*97 DFF_16/q_reg
*98 DFF_15/q_reg
*99 DFF_14/q_reg
*100 DFF_13/q_reg
*101 DFF_12/q_reg
*102 DFF_11/q_reg
*103 DFF_26/q_reg
*104 DFF_25/q_reg
*105 DFF_24/q_reg
*106 DFF_23/q_reg
*107 DFF_22/q_reg
*108 DFF_21/q_reg
*109 DFF_20/q_reg
*110 DFF_19/q_reg
*111 DFF_34/q_reg
*112 DFF_33/q_reg
*113 DFF_32/q_reg
*114 DFF_31/q_reg
*115 DFF_30/q_reg
*116 DFF_29/q_reg
*117 DFF_28/q_reg
*118 DFF_27/q_reg
*119 DFF_42/q_reg
*120 DFF_41/q_reg
*121 DFF_40/q_reg
*122 DFF_39/q_reg
*123 DFF_38/q_reg
*124 DFF_37/q_reg
*125 DFF_36/q_reg
*126 DFF_35/q_reg
*127 DFF_50/q_reg
*128 DFF_49/q_reg
*129 DFF_48/q_reg
*130 DFF_47/q_reg
*131 DFF_46/q_reg
*132 DFF_45/q_reg
*133 DFF_44/q_reg
*134 DFF_43/q_reg
*135 DFF_58/q_reg
*136 DFF_57/q_reg
*137 DFF_56/q_reg
*138 DFF_55/q_reg
*139 DFF_54/q_reg
*140 DFF_53/q_reg
*141 DFF_52/q_reg
*142 DFF_51/q_reg
*143 DFF_66/q_reg
*144 DFF_65/q_reg
*145 DFF_64/q_reg
*146 DFF_63/q_reg
*147 DFF_62/q_reg
*148 DFF_61/q_reg
*149 DFF_60/q_reg
*150 DFF_59/q_reg
*151 DFF_74/q_reg
*152 DFF_73/q_reg
*153 DFF_72/q_reg
*154 DFF_71/q_reg
*155 DFF_70/q_reg
*156 DFF_69/q_reg
*157 DFF_68/q_reg
*158 DFF_67/q_reg
*159 DFF_82/q_reg
*160 DFF_81/q_reg
*161 DFF_80/q_reg
*162 DFF_79/q_reg
*163 DFF_78/q_reg
*164 DFF_77/q_reg
*165 DFF_76/q_reg
*166 DFF_75/q_reg
*167 DFF_90/q_reg
*168 DFF_89/q_reg
*169 DFF_88/q_reg
*170 DFF_87/q_reg
*171 DFF_86/q_reg
*172 DFF_85/q_reg
*173 DFF_84/q_reg
*174 DFF_83/q_reg
*175 DFF_98/q_reg
*176 DFF_97/q_reg
*177 DFF_96/q_reg
*178 DFF_95/q_reg
*179 DFF_94/q_reg
*180 DFF_93/q_reg
*181 DFF_92/q_reg
*182 DFF_91/q_reg
*183 DFF_106/q_reg
*184 DFF_105/q_reg
*185 DFF_104/q_reg
*186 DFF_103/q_reg
*187 DFF_102/q_reg
*188 DFF_101/q_reg
*189 DFF_100/q_reg
*190 DFF_99/q_reg
*191 DFF_114/q_reg
*192 DFF_113/q_reg
*193 DFF_112/q_reg
*194 DFF_111/q_reg
*195 DFF_110/q_reg
*196 DFF_109/q_reg
*197 DFF_108/q_reg
*198 DFF_107/q_reg
*199 DFF_122/q_reg
*200 DFF_121/q_reg
*201 DFF_120/q_reg
*202 DFF_119/q_reg
*203 DFF_118/q_reg
*204 DFF_117/q_reg
*205 DFF_116/q_reg
*206 DFF_115/q_reg
*207 DFF_130/q_reg
*208 DFF_129/q_reg
*209 DFF_128/q_reg
*210 DFF_127/q_reg
*211 DFF_126/q_reg
*212 DFF_125/q_reg
*213 DFF_124/q_reg
*214 DFF_123/q_reg
*215 DFF_138/q_reg
*216 DFF_137/q_reg
*217 DFF_136/q_reg
*218 DFF_135/q_reg
*219 DFF_134/q_reg
*220 DFF_133/q_reg
*221 DFF_132/q_reg
*222 DFF_131/q_reg
*223 DFF_146/q_reg
*224 DFF_145/q_reg
*225 DFF_144/q_reg
*226 DFF_143/q_reg
*227 DFF_142/q_reg
*228 DFF_141/q_reg
*229 DFF_140/q_reg
*230 DFF_139/q_reg
*231 DFF_154/q_reg
*232 DFF_153/q_reg
*233 DFF_152/q_reg
*234 DFF_151/q_reg
*235 DFF_150/q_reg
*236 DFF_149/q_reg
*237 DFF_148/q_reg
*238 DFF_147/q_reg
*239 DFF_162/q_reg
*240 DFF_161/q_reg
*241 DFF_160/q_reg
*242 DFF_159/q_reg
*243 DFF_158/q_reg
*244 DFF_157/q_reg
*245 DFF_156/q_reg
*246 DFF_155/q_reg
*247 DFF_170/q_reg
*248 DFF_169/q_reg
*249 DFF_168/q_reg
*250 DFF_167/q_reg
*251 DFF_166/q_reg
*252 DFF_165/q_reg
*253 DFF_164/q_reg
*254 DFF_163/q_reg
*255 DFF_178/q_reg
*256 DFF_177/q_reg
*257 DFF_176/q_reg
*258 DFF_175/q_reg
*259 DFF_174/q_reg
*260 DFF_173/q_reg
*261 DFF_172/q_reg
*262 DFF_171/q_reg
*263 DFF_186/q_reg
*264 DFF_185/q_reg
*265 DFF_184/q_reg
*266 DFF_183/q_reg
*267 DFF_182/q_reg
*268 DFF_181/q_reg
*269 DFF_180/q_reg
*270 DFF_179/q_reg
*271 DFF_194/q_reg
*272 DFF_193/q_reg
*273 DFF_192/q_reg
*274 DFF_191/q_reg
*275 DFF_190/q_reg
*276 DFF_189/q_reg
*277 DFF_188/q_reg
*278 DFF_187/q_reg
*279 DFF_202/q_reg
*280 DFF_201/q_reg
*281 DFF_200/q_reg
*282 DFF_199/q_reg
*283 DFF_198/q_reg
*284 DFF_197/q_reg
*285 DFF_196/q_reg
*286 DFF_195/q_reg
*287 DFF_209/q_reg
*288 DFF_208/q_reg
*289 DFF_207/q_reg
*290 DFF_206/q_reg
*291 DFF_205/q_reg
*292 DFF_204/q_reg
*293 DFF_203/q_reg
*294 g59
*295 U1553
*296 U1545
*297 U1516
*298 U1399
*299 U1308
*300 U1099
*301 g6686
*302 U1443
*303 U1270
*304 g1
*305 U1207
*306 g2
*307 U1208
*308 g691
*309 U850
*310 U1645
*311 U1627
*312 U1344
*313 U1343
*314 U1275
*315 U1181
*316 U1065
*317 g14
*318 U1209
*319 g694
*320 U1066
*321 U1693
*322 U1643
*323 U1630
*324 U1526
*325 U1445
*326 U1281
*327 U1247
*328 g6452
*329 U1096
*330 g64
*331 U1097
*332 g6301
*333 U1352
*334 g532
*335 U1664
*336 U1565
*337 g6303
*338 U1070
*339 g512
*340 U1330
*341 U1157
*342 g6113
*343 U1112
*344 g161
*345 U1182
*346 U1145
*347 U1113
*348 g6936
*349 U1235
*350 g127
*351 U1236
*352 g5625
*353 U1161
*354 g277
*355 U1244
*356 U1228
*357 U1185
*358 U1132
*359 U1071
*360 g6
*361 U1263
*362 g692
*363 U1276
*364 U1067
*365 U1700
*366 U1639
*367 U1625
*368 U1528
*369 U1461
*370 U1349
*371 U1342
*372 g6109
*373 U886
*374 g152
*375 U1546
*376 U1187
*377 g6444
*378 U1195
*379 g49
*380 U1406
*381 U1305
*382 U1293
*383 U1271
*384 U1198
*385 g3910
*386 U1539
*387 g266
*388 U1568
*389 U1117
*390 g4436
*391 U1668
*392 g434
*393 U1056
*394 g4447
*395 U1661
*396 g414
*397 U1660
*398 g5696
*399 U1226
*400 g382
*401 U1222
*402 g4752
*403 U1323
*404 g135
*405 U1429
*406 U1340
*407 U1326
*408 g5474
*409 U1241
*410 g193
*411 U1319
*412 U1106
*413 n184
*414 U1541
*415 g699
*416 U1601
*417 U1174
*418 U1116
*419 n686
*420 U1702
*421 U956
*422 g485
*423 g6295
*424 U968
*425 g582
*426 U1557
*427 U1549
*428 U1529
*429 U1437
*430 g677
*431 U1578
*432 U1440
*433 U1246
*434 U1127
*435 g6483
*436 U1170
*437 g6691
*438 U1444
*439 U1133
*440 g6480
*441 U1159
*442 g6688
*443 U1480
*444 U1262
*445 g4740
*446 U1260
*447 g131
*448 U1409
*449 g5701
*450 U1215
*451 g111
*452 U1238
*453 U1217
*454 U1216
*455 g571
*456 U1465
*457 U1252
*458 g260
*459 U1663
*460 g6310
*461 U1069
*462 g524
*463 U1618
*464 U1165
*465 g3727
*466 U1372
*467 g114
*468 U1560
*469 U1412
*470 U1339
*471 U1299
*472 U1261
*473 g666
*474 g6287
*475 U865
*476 g197
*477 U1650
*478 U1649
*479 U1647
*480 U1490
*481 U1638
*482 U869
*483 U1651
*484 U1652
*485 U1654
*486 U1653
*487 U1640
*488 U1642
*489 U852
*490 g5622
*491 g205
*492 U1493
*493 U1471
*494 U1422
*495 U1333
*496 g6292
*497 U1068
*498 g500
*499 U1397
*500 g606
*501 U1517
*502 U1513
*503 U1462
*504 g236
*505 U1552
*506 U1329
*507 g4441
*508 U1669
*509 g406
*510 U1670
*511 g5693
*512 U1225
*513 g370
*514 U1221
*515 U1211
*516 g6788
*517 U1657
*518 g548
*519 U1574
*520 g6300
*521 g508
*522 U1312
*523 U1150
*524 g5695
*525 U1224
*526 g378
*527 U1266
*528 g4761
*529 U931
*530 g650
*531 U1561
*532 U1463
*533 g3814
*534 U1698
*535 g658
*536 U1551
*537 U1467
*538 U1704
*539 U1701
*540 U1683
*541 U935
*542 U1703
*543 U978
*544 U1205
*545 U1464
*546 U1468
*547 U1469
*548 U1466
*549 U856
*550 g5531
*551 U1644
*552 U1154
*553 g204
*554 U1446
*555 U1433
*556 g6485
*557 U1167
*558 g6684
*559 U1143
*560 g642
*561 U1310
*562 U1286
*563 g230
*564 g5699
*565 U1223
*566 g394
*567 U1227
*568 U1095
*569 g6791
*570 U1166
*571 g210
*572 U1558
*573 U1506
*574 U1416
*575 U1382
*576 U1317
*577 g4455
*578 U1662
*579 g422
*580 U1676
*581 U1054
*582 g4757
*583 U1338
*584 g139
*585 n685
*586 U1017
*587 g668
*588 g3725
*589 U1371
*590 g119
*591 U1370
*592 U1361
*593 g5473
*594 U1240
*595 g184
*596 U1102
*597 g6291
*598 U966
*599 g578
*600 U1527
*601 U1435
*602 g646
*603 U1518
*604 g242
*605 U1677
*606 g598
*607 U1031
*608 U1376
*609 U1294
*610 U1280
*611 g218
*612 U1314
*613 g6455
*614 U1092
*615 g79
*616 U1202
*617 U1125
*618 U1093
*619 g3768
*620 U1459
*621 g616
*622 U1401
*623 g489
*624 U1475
*625 U1356
*626 g634
*627 U1279
*628 U861
*629 U1028
*630 g286
*631 U1537
*632 g6304
*633 U1307
*634 g594
*635 U1536
*636 U1534
*637 U1327
*638 g6447
*639 U1088
*640 g54
*641 U1407
*642 U1405
*643 U1288
*644 U1267
*645 U1089
*646 g3726
*647 g122
*648 g665
*649 g478
*650 U1495
*651 U1430
*652 U1408
*653 U1134
*654 g675
*655 U1602
*656 g5629
*657 U1641
*658 U1169
*659 g209
*660 U1492
*661 U1472
*662 U1421
*663 U1383
*664 g5583
*665 g148
*666 U1269
*667 U1233
*668 g2670
*669 U1457
*670 g610
*671 U1458
*672 U1414
*673 g663
*674 g5535
*675 U1172
*676 g280
*677 U1243
*678 U1192
*679 g3844
*680 U1309
*681 g2861
*682 U1410
*683 g602
*684 g667
*685 g638
*686 U927
*687 U925
*688 U1297
*689 U1251
*690 U973
*691 U929
*692 g288
*693 U1525
*694 U1485
*695 g686
*696 U1632
*697 U1566
*698 g6114
*699 U1108
*700 g170
*701 U1562
*702 U1201
*703 U1122
*704 U1109
*705 U1103
*706 g6704
*707 U1508
*708 g492
*709 U1486
*710 g5628
*711 U1158
*712 U1072
*713 g279
*714 U1186
*715 U1074
*716 g5916
*717 U1043
*718 g366
*719 U1400
*720 g5231
*721 U1511
*722 g672
*723 U1689
*724 g6108
*725 U882
*726 g143
*727 U1438
*728 U1295
*729 U1040
*730 g10
*731 g680
*732 U1634
*733 U1439
*734 U1380
*735 g6690
*736 U1442
*737 U1147
*738 g3828
*739 U983
*740 g613
*741 U1402
*742 g6794
*743 U1631
*744 U1623
*745 U1619
*746 g283
*747 U1509
*748 U1119
*749 U1034
*750 U1477
*751 g688
*752 U1496
*753 U1474
*754 U1381
*755 g6687
*756 U1497
*757 g28
*758 g679
*759 U1607
*760 U1514
*761 U1432
*762 U1254
*763 g4872
*764 U1455
*765 g628
*766 U1501
*767 g5291
*768 U1320
*769 g345
*770 U1378
*771 U1322
*772 g6921
*773 U1611
*774 g336
*775 U1612
*776 g287
*777 U1530
*778 g290
*779 U1521
*780 g5277
*781 U1390
*782 g341
*783 U1273
*784 g654
*785 U1563
*786 g254
*787 U1403
*788 g6787
*789 U1656
*790 g545
*791 U1573
*792 g5050
*793 U1373
*794 g353
*795 U1374
*796 U1337
*797 U1272
*798 g24
*799 g683
*800 U1613
*801 U1436
*802 U1194
*803 U1049
*804 g6293
*805 g536
*806 U1542
*807 g6307
*808 g516
*809 U1171
*810 g696
*811 U1694
*812 U1629
*813 U1248
*814 g5323
*815 U1427
*816 g338
*817 U1230
*818 g6454
*819 U1084
*820 g74
*821 U1085
*822 g6289
*823 U1345
*824 g541
*825 U1531
*826 g5471
*827 U1234
*828 g166
*829 U1239
*830 U1114
*831 g6296
*832 g504
*833 U1398
*834 g5697
*835 g386
*836 U1570
*837 U1220
*838 g5303
*839 U1335
*840 g357
*841 U1285
*842 g687
*843 U1283
*844 U1200
*845 U1178
*846 g6689
*847 U1268
*848 g5694
*849 g374
*850 U1265
*851 g4454
*852 U1675
*853 g445
*854 U1665
*855 U1055
*856 g690
*857 U858
*858 U873
*859 U1626
*860 U1180
*861 g6294
*862 g293
*863 U1571
*864 g5017
*865 U1479
*866 g698
*867 U1353
*868 U1033
*869 g4607
*870 U996
*871 g326
*872 U1366
*873 g6844
*874 U1164
*875 g6685
*876 U1146
*877 g5149
*878 g6299
*879 U964
*880 g586
*881 U1556
*882 U1543
*883 U1535
*884 g6792
*885 g211
*886 U1359
*887 U1316
*888 g5295
*889 U1386
*890 g349
*891 U1389
*892 U1388
*893 U1214
*894 g664
*895 g4430
*896 g441
*897 U1666
*898 g6426
*899 U981
*900 g574
*901 U1547
*902 g6290
*903 g269
*904 U1140
*905 U868
*906 U1635
*907 U1636
*908 U1605
*909 U917
*910 g4446
*911 U1673
*912 g453
*913 U1674
*914 n161
*915 g662
*916 U1706
*917 g6845
*918 U1162
*919 g4434
*920 U1667
*921 g430
*922 U1671
*923 g4444
*924 g410
*925 U847
*926 g212
*927 U1313
*928 g6298
*929 U1341
*930 g297
*931 U1572
*932 g4438
*933 U1617
*934 g402
*935 g4451
*936 g418
*937 g285
*938 U1520
*939 g3729
*940 U1369
*941 g328
*942 U1365
*943 U1175
*944 g471
*945 U1494
*946 U1393
*947 g486
*948 U1354
*949 g4443
*950 U1672
*951 g457
*952 U1357
*953 n176
*954 U1018
*955 g337
*956 U1569
*957 U1045
*958 g693
*959 U1699
*960 U1277
*961 g6453
*962 U1080
*963 g69
*964 U1081
*965 g5167
*966 U1453
*967 g631
*968 U1544
*969 g6482
*970 U1155
*971 g5472
*972 g175
*973 U1110
*974 g5630
*975 U1628
*976 g281
*977 U1242
*978 U1184
*979 U1142
*980 U1120
*981 g6309
*982 U1064
*983 g520
*984 U1168
*985 g5386
*986 U1470
*987 g669
*988 U1686
*989 g3454
*990 U1375
*991 g4458
*992 g426
*993 U1053
*994 g284
*995 U1522
*996 g6286
*997 U1063
*998 g528
*999 U1163
*1000 g3724
*1001 U1368
*1002 g118
*1003 g4450
*1004 g449
*1005 g5624
*1006 U1151
*1007 g206
*1008 U1532
*1009 U1487
*1010 U1425
*1011 U1396
*1012 g697
*1013 U860
*1014 U1691
*1015 U1363
*1016 U1229
*1017 g6793
*1018 g282
*1019 U1419
*1020 U1121
*1021 U1035
*1022 g5470
*1023 g157
*1024 U1039
*1025 g6142
*1026 U1533
*1027 g43
*1028 U1478
*1029 g685
*1030 U1413
*1031 U1304
*1032 g224
*1033 g3731
*1034 U1367
*1035 g323
*1036 U1548
*1037 U1515
*1038 U1428
*1039 U1391
*1040 U1336
*1041 U1292
*1042 g6479
*1043 U1152
*1044 g5532
*1045 g276
*1046 U1203
*1047 g4433
*1048 g437
*1049 g681
*1050 U1303
*1051 U1232
*1052 g4687
*1053 U1451
*1054 g625
*1055 U1499
*1056 g5698
*1057 g390
*1058 U1087
*1059 g248
*1060 g5533
*1061 g208
*1062 U1473
*1063 U1424
*1064 g4157
*1065 U1449
*1066 g619
*1067 U1500
*1068 g684
*1069 U1688
*1070 U1392
*1071 U1300
*1072 g5700
*1073 g398
*1074 U1078
*1075 g289
*1076 U1524
*1077 g6440
*1078 U1599
*1079 g361
*1080 U1426
*1081 U1302
*1082 U1212
*1083 U1130
*1084 g3728
*1085 g327
*1086 g4501
*1087 g6118
*1088 U1104
*1089 g188
*1090 U1191
*1091 U1190
*1092 U1105
*1093 g4219
*1094 g6481
*1095 U1148
*1096 g18
*1097 g682
*1098 U1301
*1099 U1245
*1100 g6789
*1101 U1658
*1102 g551
*1103 U1575
*1104 g6437
*1105 U979
*1106 g590
*1107 U1519
*1108 g6658
*1109 U1441
*1110 U951
*1111 g48
*1112 U1264
*1113 g6116
*1114 U1100
*1115 g179
*1116 U1101
*1117 g6702
*1118 U1505
*1119 g496
*1120 U1484
*1121 g6790
*1122 U1659
*1123 g554
*1124 U1576
*1125 g2859
*1126 g4773
*1127 U1298
*1128 g128
*1129 U1332
*1130 g5627
*1131 g278
*1132 U1334
*1133 U1193
*1134 U1144
*1135 U1137
*1136 g4497
*1137 U1011
*1138 g117
*1139 g4460
*1140 U1447
*1141 g622
*1142 U1498
*1143 n28
*1144 U1020
*1145 g676
*1146 U1603
*1147 g291
*1148 U1540
*1149 g6456
*1150 U1076
*1151 g84
*1152 U1077
*1153 U1061
*1154 U1060
*1155 g6297
*1156 g465
*1157 U1559
*1158 U1351
*1159 U1348
*1160 g689
*1161 U1032
*1162 g3730
*1163 g331
*1164 g292
*1165 U1567
*1166 g4440
*1167 g461
*1168 U1355
*1169 g695
*1170 U1692
*1171 U1204
*1172 g5626
*1173 g207
*1174 U1482
*1175 U1423
*1176 g6937
*1177 U1256
*1178 g123
*1179 U1564
*1180 U1364
*1181 U1291
*1182 g6795
*1183 U1044
*1184 g332
*1185 U1315
*1186 U1177
*1187 g678
*1188 U1434
*1189 U1231
*1190 n307
*1191 U1697
*1192 U1026
*1193 n410
*1194 U1705
*1195 U920
*1196 n411
*1197 U924
*1198 n27
*1199 U911
*1200 n408
*1201 U1684
*1202 n409
*1203 U1379
*1204 U970
*1205 n198
*1206 U1259
*1207 U994
*1208 n224
*1209 U975
*1210 n225
*1211 U976
*1212 n197
*1213 U1258
*1214 U1237
*1215 n1
*1216 U974
*1217 n223
*1218 n204
*1219 n195
*1220 n203
*1221 U1550
*1222 n221
*1223 n390
*1224 n2
*1225 n315
*1226 U1690
*1227 n3
*1228 U1687
*1229 n383
*1230 n101
*1231 U1173
*1232 U991
*1233 n229
*1234 U1695
*1235 n201
*1236 U995
*1237 U972
*1238 n70
*1239 n416
*1240 U1282
*1241 n316
*1242 n376
*1243 n372
*1244 n310
*1245 n199
*1246 n415
*1247 n396
*1248 n4
*1249 n397
*1250 n311
*1251 n404
*1252 n405
*1253 n406
*1254 U874
*1255 n407
*1256 U875
*1257 n226
*1258 n323
*1259 U1328
*1260 U1037
*1261 n659
*1262 U1249
*1263 U1678
*1264 n118
*1265 U1347
*1266 U1149
*1267 n116
*1268 U1346
*1269 U1156
*1270 n668
*1271 U1331
*1272 n665
*1273 n153
*1274 n206
*1275 U904
*1276 n205
*1277 U1418
*1278 n256
*1279 n255
*1280 U1415
*1281 n296
*1282 U1648
*1283 n303
*1284 U957
*1285 n297
*1286 n302
*1287 n304
*1288 U1646
*1289 n284
*1290 n305
*1291 n283
*1292 n301
*1293 n300
*1294 n299
*1295 U1253
*1296 n96
*1297 U1608
*1298 n298
*1299 n286
*1300 U1609
*1301 n295
*1302 U1199
*1303 n288
*1304 n293
*1305 n281
*1306 U1633
*1307 n292
*1308 n282
*1309 n598
*1310 n596
*1311 n145
*1312 n602
*1313 U1488
*1314 n581
*1315 n582
*1316 U1483
*1317 U1021
*1318 n595
*1319 n591
*1320 U1481
*1321 n403
*1322 U1637
*1323 n121
*1324 n385
*1325 U1624
*1326 U945
*1327 n384
*1328 U947
*1329 n164
*1330 n386
*1331 n279
*1332 n280
*1333 n287
*1334 n277
*1335 U1610
*1336 n290
*1337 n264
*1338 n271
*1339 n600
*1340 U1138
*1341 n577
*1342 n578
*1343 U1075
*1344 U1022
*1345 n594
*1346 n589
*1347 n78
*1348 n588
*1349 n395
*1350 n149
*1351 n32
*1352 n313
*1353 n25
*1354 U922
*1355 n314
*1356 n703
*1357 n706
*1358 n667
*1359 n660
*1360 n278
*1361 n699
*1362 n262
*1363 n178
*1364 U962
*1365 n174
*1366 U846
*1367 n698
*1368 U1606
*1369 n261
*1370 U1059
*1371 U1016
*1372 U934
*1373 U903
*1374 U901
*1375 n697
*1376 n696
*1377 n285
*1378 n695
*1379 n289
*1380 n291
*1381 n694
*1382 n693
*1383 n5
*1384 U941
*1385 n465
*1386 U1604
*1387 U902
*1388 n6
*1389 n427
*1390 n612
*1391 U1512
*1392 U1058
*1393 g5385
*1394 U1581
*1395 n173
*1396 U1219
*1397 n309
*1398 U985
*1399 n183
*1400 n429
*1401 U1577
*1402 n475
*1403 U1128
*1404 n60
*1405 U1598
*1406 n513
*1407 U1597
*1408 U1596
*1409 U1595
*1410 U1594
*1411 U1593
*1412 U1592
*1413 U1591
*1414 U1590
*1415 g6110
*1416 n80
*1417 g6167
*1418 n156
*1419 g6170
*1420 n61
*1421 g6173
*1422 n94
*1423 g6176
*1424 n157
*1425 g6179
*1426 n144
*1427 g6182
*1428 n107
*1429 g6185
*1430 n100
*1431 g6189
*1432 U1589
*1433 U1586
*1434 U1504
*1435 U1385
*1436 U1131
*1437 n181
*1438 U1588
*1439 U1587
*1440 U1585
*1441 U1041
*1442 n266
*1443 U1179
*1444 U1052
*1445 n270
*1446 U1176
*1447 U625
*1448 n269
*1449 n487
*1450 U1584
*1451 n263
*1452 n179
*1453 U892
*1454 U1051
*1455 n442
*1456 U1583
*1457 U987
*1458 n177
*1459 U954
*1460 n496
*1461 U1538
*1462 n512
*1463 U1012
*1464 n55
*1465 n58
*1466 n99
*1467 n110
*1468 n114
*1469 U1083
*1470 n249
*1471 U937
*1472 n136
*1473 n10
*1474 U1257
*1475 n109
*1476 U948
*1477 U930
*1478 n135
*1479 n148
*1480 U942
*1481 U932
*1482 n152
*1483 U1324
*1484 n605
*1485 U1015
*1486 n523
*1487 U1555
*1488 n141
*1489 U977
*1490 U967
*1491 n20
*1492 n520
*1493 n522
*1494 n521
*1495 U871
*1496 n519
*1497 U1554
*1498 n518
*1499 n106
*1500 U997
*1501 U965
*1502 n524
*1503 n517
*1504 n454
*1505 n258
*1506 n257
*1507 n526
*1508 U1029
*1509 n620
*1510 U1213
*1511 U944
*1512 n623
*1513 U1030
*1514 n103
*1515 U998
*1516 U982
*1517 n163
*1518 U916
*1519 U894
*1520 U889
*1521 n452
*1522 n95
*1523 U1454
*1524 U1003
*1525 n251
*1526 n87
*1527 n247
*1528 U938
*1529 n129
*1530 U923
*1531 n142
*1532 n515
*1533 n514
*1534 n57
*1535 U1008
*1536 U980
*1537 n516
*1538 n89
*1539 U1395
*1540 n248
*1541 n77
*1542 U971
*1543 n525
*1544 n253
*1545 U1523
*1546 n59
*1547 n254
*1548 n119
*1549 n252
*1550 n245
*1551 n250
*1552 n246
*1553 n125
*1554 n64
*1555 U943
*1556 U928
*1557 n62
*1558 U933
*1559 U926
*1560 n166
*1561 U879
*1562 n86
*1563 U1321
*1564 n227
*1565 n228
*1566 n689
*1567 n332
*1568 U1510
*1569 n330
*1570 U1420
*1571 n347
*1572 n331
*1573 U963
*1574 U908
*1575 n93
*1576 n346
*1577 n134
*1578 U1160
*1579 n343
*1580 U1507
*1581 n341
*1582 U1417
*1583 n360
*1584 n342
*1585 U1027
*1586 U1013
*1587 n72
*1588 n359
*1589 n56
*1590 U1153
*1591 n272
*1592 U1023
*1593 U1503
*1594 U1384
*1595 U1255
*1596 U1062
*1597 U1038
*1598 U1124
*1599 U1050
*1600 n219
*1601 U1024
*1602 U993
*1603 n124
*1604 U1456
*1605 U1001
*1606 n71
*1607 U1450
*1608 U1000
*1609 n76
*1610 U1452
*1611 U1005
*1612 n36
*1613 U1448
*1614 U1002
*1615 n308
*1616 U992
*1617 n348
*1618 U909
*1619 n361
*1620 U1014
*1621 n371
*1622 U990
*1623 n139
*1624 U1491
*1625 n583
*1626 n345
*1627 U1358
*1628 n584
*1629 U1007
*1630 n73
*1631 U1489
*1632 n603
*1633 n593
*1634 U1010
*1635 n17
*1636 n597
*1637 U1006
*1638 n146
*1639 U870
*1640 n609
*1641 n14
*1642 n592
*1643 n90
*1644 n550
*1645 n611
*1646 n610
*1647 U1206
*1648 n608
*1649 U1476
*1650 n607
*1651 n191
*1652 g2433
*1653 n419
*1654 n417
*1655 n368
*1656 n365
*1657 n679
*1658 U1460
*1659 U1004
*1660 U999
*1661 n140
*1662 n681
*1663 n675
*1664 U848
*1665 n684
*1666 n680
*1667 U984
*1668 n640
*1669 n639
*1670 n631
*1671 n630
*1672 n508
*1673 n652
*1674 n651
*1675 n674
*1676 n658
*1677 n657
*1678 n370
*1679 n369
*1680 n551
*1681 n549
*1682 n548
*1683 n158
*1684 n132
*1685 U885
*1686 n159
*1687 U986
*1688 U969
*1689 n604
*1690 U910
*1691 n649
*1692 U1325
*1693 n568
*1694 U1019
*1695 U958
*1696 U876
*1697 n613
*1698 n117
*1699 n82
*1700 U864
*1701 n479
*1702 U1129
*1703 n478
*1704 n18
*1705 n344
*1706 U988
*1707 n329
*1708 n328
*1709 n326
*1710 U1036
*1711 U899
*1712 n325
*1713 U1118
*1714 n340
*1715 n339
*1716 n337
*1717 U1318
*1718 U1009
*1719 n336
*1720 n423
*1721 n126
*1722 n646
*1723 U989
*1724 n171
*1725 U1411
*1726 U1287
*1727 U939
*1728 U1296
*1729 U1057
*1730 n217
*1731 U1362
*1732 n155
*1733 n488
*1734 n446
*1735 n441
*1736 U1126
*1737 n486
*1738 U1404
*1739 n68
*1740 n162
*1741 n440
*1742 n447
*1743 n666
*1744 n128
*1745 n115
*1746 n150
*1747 n367
*1748 n366
*1749 n364
*1750 U1394
*1751 n363
*1752 n362
*1753 n200
*1754 n202
*1755 n624
*1756 n122
*1757 n619
*1758 U1387
*1759 n123
*1760 n617
*1761 n618
*1762 n81
*1763 n653
*1764 n322
*1765 U1046
*1766 n656
*1767 n194
*1768 n506
*1769 n338
*1770 n421
*1771 n420
*1772 g3599
*1773 U1377
*1774 n137
*1775 n682
*1776 n677
*1777 U849
*1778 n634
*1779 n635
*1780 n636
*1781 U1284
*1782 n218
*1783 n214
*1784 n211
*1785 n215
*1786 U896
*1787 n216
*1788 U893
*1789 n212
*1790 n213
*1791 U959
*1792 n210
*1793 n599
*1794 U1360
*1795 U961
*1796 U940
*1797 n45
*1798 U1290
*1799 n187
*1800 U1042
*1801 U1047
*1802 n105
*1803 n97
*1804 n399
*1805 n391
*1806 U919
*1807 n400
*1808 n21
*1809 n425
*1810 n497
*1811 U1350
*1812 U866
*1813 n23
*1814 n504
*1815 n505
*1816 n503
*1817 n511
*1818 n39
*1819 U890
*1820 n16
*1821 n510
*1822 n509
*1823 n500
*1824 U863
*1825 n24
*1826 n160
*1827 n644
*1828 n645
*1829 U857
*1830 n120
*1831 n614
*1832 n616
*1833 n615
*1834 n37
*1835 U1136
*1836 n50
*1837 n664
*1838 n662
*1839 n661
*1840 n663
*1841 U1311
*1842 n492
*1843 U960
*1844 n35
*1845 U867
*1846 n648
*1847 n49
*1848 n647
*1849 n622
*1850 n621
*1851 n170
*1852 U855
*1853 n44
*1854 n15
*1855 n335
*1856 n9
*1857 U914
*1858 n671
*1859 n669
*1860 n670
*1861 n676
*1862 n51
*1863 n673
*1864 n34
*1865 n641
*1866 n43
*1867 n190
*1868 U912
*1869 n566
*1870 U884
*1871 n565
*1872 U955
*1873 n683
*1874 U952
*1875 n473
*1876 U1197
*1877 n472
*1878 n574
*1879 n575
*1880 U853
*1881 n167
*1882 U921
*1883 n567
*1884 U1189
*1885 U905
*1886 n462
*1887 U1289
*1888 U1091
*1889 n66
*1890 n453
*1891 U949
*1892 U881
*1893 n113
*1894 n481
*1895 U946
*1896 U877
*1897 n112
*1898 n414
*1899 n239
*1900 U1278
*1901 n53
*1902 U859
*1903 n237
*1904 n238
*1905 n235
*1906 U936
*1907 n236
*1908 n240
*1909 U1274
*1910 n52
*1911 n241
*1912 n242
*1913 n243
*1914 n234
*1915 n530
*1916 U1210
*1917 n451
*1918 U953
*1919 n463
*1920 n461
*1921 n468
*1922 n628
*1923 n650
*1924 n196
*1925 n192
*1926 n193
*1927 n562
*1928 U906
*1929 n172
*1930 n418
*1931 n294
*1932 n633
*1933 n632
*1934 n570
*1935 U1250
*1936 U1502
*1937 n84
*1938 U913
*1939 n175
*1940 U895
*1941 U1048
*1942 n357
*1943 n356
*1944 n358
*1945 U891
*1946 n392
*1947 U918
*1948 n422
*1949 n424
*1950 n355
*1951 n138
*1952 U1139
*1953 n606
*1954 n154
*1955 n207
*1956 n222
*1957 n208
*1958 n169
*1959 U1025
*1960 n209
*1961 U915
*1962 n352
*1963 n576
*1964 n569
*1965 U1218
*1966 U1188
*1967 n11
*1968 n571
*1969 n572
*1970 n104
*1971 n474
*1972 n629
*1973 n627
*1974 n626
*1975 n435
*1976 U1079
*1977 n538
*1978 U1111
*1979 n533
*1980 U1107
*1981 n306
*1982 n470
*1983 U1196
*1984 n471
*1985 n434
*1986 U1579
*1987 U1098
*1988 U1090
*1989 U1086
*1990 U880
*1991 U854
*1992 n469
*1993 n79
*1994 U862
*1995 n590
*1996 U897
*1997 n41
*1998 U900
*1999 n580
*2000 U1141
*2001 U898
*2002 n63
*2003 n573
*2004 n534
*2005 n13
*2006 n556
*2007 U888
*2008 n555
*2009 U907
*2010 n42
*2011 n587
*2012 n40
*2013 n333
*2014 n547
*2015 U1183
*2016 U1115
*2017 n131
*2018 n539
*2019 U1123
*2020 n180
*2021 n413
*2022 U1306
*2023 n267
*2024 n268
*2025 n265
*2026 n428
*2027 n378
*2028 n379
*2029 n377
*2030 n30
*2031 n374
*2032 n375
*2033 n373
*2034 n318
*2035 n319
*2036 n317
*2037 n312
*2038 n29
*2039 U872
*2040 n393
*2041 n398
*2042 n394
*2043 n380
*2044 n381
*2045 n31
*2046 n382
*2047 n401
*2048 n402
*2049 n387
*2050 n388
*2051 n389
*2052 n546
*2053 n92
*2054 n579
*2055 n334
*2056 U1073
*2057 n601
*2058 n354
*2059 n353
*2060 n351
*2061 U1135
*2062 n350
*2063 n349
*2064 n483
*2065 n182
*2066 n476
*2067 n477
*2068 n412
*2069 n69
*2070 n436
*2071 n220
*2072 n189
*2073 n130
*2074 n327
*2075 n127
*2076 n426
*2077 n545
*2078 n532
*2079 n544
*2080 n543
*2081 n12
*2082 U851
*2083 n528
*2084 n542
*2085 n541
*2086 n540
*2087 n531
*2088 n529
*2089 n527
*2090 n537
*2091 n536
*2092 n535
*2093 n65
*2094 n67
*2095 n457
*2096 n456
*2097 n455
*2098 n143
*2099 U1094
*2100 n439
*2101 n438
*2102 n437
*2103 n467
*2104 n466
*2105 n464
*2106 n445
*2107 n444
*2108 n443
*2109 n450
*2110 U1082
*2111 n449
*2112 n448
*2113 n433
*2114 n431
*2115 n430
*2116 n38
*2117 n586
*2118 n585
*2119 n558
*2120 n560
*2121 n33
*2122 n485
*2123 n480
*2124 n321
*2125 n320
*2126 n557
*2127 n19
*2128 n324
*2129 n108
*2130 n98
*2131 n491
*2132 n493
*2133 n495
*2134 n499
*2135 n230
*2136 n502
*2137 n678
*2138 n494
*2139 n490
*2140 n244
*2141 U950
*2142 n501
*2143 n507
*2144 n498
*2145 n46
*2146 n638
*2147 n643
*2148 n655
*2149 n188
*2150 n233
*2151 n232
*2152 n231
*2153 n642
*2154 n637
*2155 n654
*2156 n672
*2157 n561
*2158 n489
*2159 n482
*2160 n88
*2161 n47
*2162 n484
*2163 n553
*2164 U887
*2165 n554
*2166 n552
*2167 n563
*2168 U883
*2169 n564
*2170 n559
*2171 n460
*2172 n459
*2173 n458
*2174 n688
*2175 U1431
*2176 n723
*2177 n724
*2178 n719
*2179 n720
*2180 n721
*2181 n722
*2182 n725
*2183 n726
*2184 n727
*2185 n728
*2186 n729
*2187 n730
*2188 n731
*2189 n732
*2190 n733
*2191 n734
*2192 n735
*2193 n736

*PORTS
*1 I *L 0.0 *S 0.0 0.0
*2 I *L 0.0 *S 0.0 0.0
*3 I *L 0.0 *S 0.0 0.0
*4 I *L 0.0 *S 0.0 0.0
*5 I *L 0.0 *S 0.0 0.0
*6 I *L 0.0 *S 0.0 0.0
*7 I *L 0.0 *S 0.0 0.0
*8 I *L 0.0 *S 0.0 0.0
*9 I *L 0.0 *S 0.0 0.0
*10 I *L 0.0 *S 0.0 0.0
*11 I *L 0.0 *S 0.0 0.0
*12 I *L 0.0 *S 0.0 0.0
*13 I *L 0.0 *S 0.0 0.0
*14 I *L 0.0 *S 0.0 0.0
*15 I *L 0.0 *S 0.0 0.0
*16 I *L 0.0 *S 0.0 0.0
*17 I *L 0.0 *S 0.0 0.0
*18 I *L 0.0 *S 0.0 0.0
*19 I *L 0.0 *S 0.0 0.0
*20 I *L 0.0 *S 0.0 0.0
*21 I *L 0.0 *S 0.0 0.0
*22 I *L 0.0 *S 0.0 0.0
*23 I *L 0.0 *S 0.0 0.0
*24 I *L 0.0 *S 0.0 0.0
*25 I *L 0.0 *S 0.0 0.0
*26 I *L 0.0 *S 0.0 0.0
*27 I *L 0.0 *S 0.0 0.0
*28 I *L 0.0 *S 0.0 0.0
*29 I *L 0.0 *S 0.0 0.0
*30 I *L 0.0 *S 0.0 0.0
*31 I *L 0.0 *S 0.0 0.0
*32 I *L 0.0 *S 0.0 0.0
*33 I *L 0.0 *S 0.0 0.0
*34 I *L 0.0 *S 0.0 0.0
*35 I *L 0.0 *S 0.0 0.0
*36 I *L 0.0 *S 0.0 0.0
*37 I *L 0.0 *S 0.0 0.0
*38 I *L 0.0 *S 0.0 0.0
*39 I *L 0.0 *S 0.0 0.0
*40 I *L 0.0 *S 0.0 0.0
*41 O *L 300.0 *S 0.0 0.0
*42 O *L 300.0 *S 0.0 0.0
*43 O *L 300.0 *S 0.0 0.0
*44 O *L 300.0 *S 0.0 0.0
*45 O *L 300.0 *S 0.0 0.0
*46 O *L 300.0 *S 0.0 0.0
*47 O *L 300.0 *S 0.0 0.0
*48 I *L 0.0 *S 0.0 0.0
*49 O *L 300.0 *S 0.0 0.0
*50 O *L 300.0 *S 0.0 0.0
*51 O *L 300.0 *S 0.0 0.0
*52 O *L 300.0 *S 0.0 0.0
*53 O *L 300.0 *S 0.0 0.0
*54 O *L 300.0 *S 0.0 0.0
*55 O *L 300.0 *S 0.0 0.0
*56 O *L 300.0 *S 0.0 0.0
*57 O *L 300.0 *S 0.0 0.0
*58 O *L 300.0 *S 0.0 0.0
*59 O *L 300.0 *S 0.0 0.0
*60 O *L 300.0 *S 0.0 0.0
*61 O *L 300.0 *S 0.0 0.0
*62 O *L 300.0 *S 0.0 0.0
*63 O *L 300.0 *S 0.0 0.0
*64 O *L 300.0 *S 0.0 0.0
*65 O *L 300.0 *S 0.0 0.0
*66 O *L 300.0 *S 0.0 0.0
*67 O *L 300.0 *S 0.0 0.0
*68 O *L 300.0 *S 0.0 0.0
*69 O *L 300.0 *S 0.0 0.0
*70 O *L 300.0 *S 0.0 0.0
*71 O *L 300.0 *S 0.0 0.0
*72 O *L 300.0 *S 0.0 0.0
*73 O *L 300.0 *S 0.0 0.0
*74 O *L 300.0 *S 0.0 0.0
*75 O *L 300.0 *S 0.0 0.0
*76 O *L 300.0 *S 0.0 0.0
*77 O *L 300.0 *S 0.0 0.0
*78 O *L 300.0 *S 0.0 0.0
*79 O *L 300.0 *S 0.0 0.0
*80 O *L 300.0 *S 0.0 0.0

*D_NET *81 0.6370417

*CONN
*I *82:D I *L 496.4084 *C 10.441 27.703
*I *83:Y O *L 0.0 *D AO21X1_RVT *C 12.752 24.776
*N *81:3 *C 10.776 26.888
*N *81:4 *C 10.776 26.888
*N *81:5 *C 10.776 24.0
*N *81:6 *C 10.776 24.0
*N *81:7 *C 10.776 27.812
*N *81:8 *C 12.6 24.0
*N *81:9 *C 12.6 23.875
*N *81:10 *C 10.776 24.046
*N *81:11 *C 10.776 26.842

*CAP
1 *82:D 0.02331992
2 *83:Y 0.005027328
3 *81:3 0.009697618
4 *81:4 0.04662918
5 *81:5 0.009168697
6 *81:6 0.1072651
7 *81:7 0.0699491
8 *81:8 0.1113332
9 *81:9 0.009095461
10 *81:10 0.05522111
11 *81:11 0.05575002
12 *81:10 *294:38 0.06040661
13 *81:11 *640:35 0.03708914
14 *81:10 *640:34 0.03708914

*RES
1 *81:3 *81:4 1.0
2 *81:5 *81:6 1.0
3 *82:D *81:7 0.3800001
4 *81:4 *81:7 1.744875
5 *81:6 *81:8 3.550408
6 *81:9 *83:Y 0.2428572
7 *81:9 *81:8 0.147541
8 *81:5 *81:10 0.02738095
9 *81:11 *81:3 0.02738095
10 *81:10 *81:11 4.895808

*END

*D_NET *4 88.27856

*CONN
*I *84:CLK I *L 619.3525 *C 62.152 26.888
*I *85:CLK I *L 619.3525 *C 43.152 13.512
*I *86:CLK I *L 619.3525 *C 24.304 39.96
*I *87:CLK I *L 619.3525 *C 15.032 36.92
*I *88:CLK I *L 619.3525 *C 23.392 29.928
*I *89:CLK I *L 619.3525 *C 42.088 6.824
*I *90:CLK I *L 619.3525 *C 51.056 23.24
*I *91:CLK I *L 619.3525 *C 6.368 43.608
*I *92:CLK I *L 619.3525 *C 53.488 67.016
*I *93:CLK I *L 619.3525 *C 10.472 53.64
*I *94:CLK I *L 619.3525 *C 12.144 60.024
*I *95:CLK I *L 619.3525 *C 61.544 6.824
*I *96:CLK I *L 619.3525 *C 23.24 66.712
*I *97:CLK I *L 619.3525 *C 59.112 9.864
*I *98:CLK I *L 619.3525 *C 71.88 6.52
*I *99:CLK I *L 619.3525 *C 22.176 30.232
*I *100:CLK I *L 619.3525 *C 55.312 23.24
*I *101:CLK I *L 619.3525 *C 21.112 23.24
*I *102:CLK I *L 619.3525 *C 41.176 73.4
*I *103:CLK I *L 619.3525 *C 20.504 40.264
*I *104:CLK I *L 619.3525 *C 41.024 76.744
*I *105:CLK I *L 619.3525 *C 77.808 73.4
*I *106:CLK I *L 619.3525 *C 11.384 33.576
*I *107:CLK I *L 619.3525 *C 75.072 56.984
*I *108:CLK I *L 619.3525 *C 49.232 76.744
*I *109:CLK I *L 619.3525 *C 39.352 66.712
*I *110:CLK I *L 619.3525 *C 49.992 46.648
*I *111:CLK I *L 619.3525 *C 18.376 6.52
*I *112:CLK I *L 619.3525 *C 47.104 20.2